REMARK  Name = ../refined-set-2016/2hw2/2hw2_pocket.pdb
REMARK  218 active torsions:
REMARK  status: ('A' for Active; 'I' for Inactive)
REMARK    1  A    between atoms: _2  and  _3
REMARK    2  A    between atoms: _8  and  _10
REMARK    3  A    between atoms: _10  and  _11
REMARK    4  A    between atoms: _10  and  _13
REMARK    5  A    between atoms: _13  and  _14
REMARK    6  A    between atoms: _20  and  _22
REMARK    7  A    between atoms: _22  and  _23
REMARK    8  A    between atoms: _25  and  _27
REMARK    9  A    between atoms: _27  and  _28
REMARK   10  A    between atoms: _27  and  _30
REMARK   11  A    between atoms: _30  and  _31
REMARK   12  A    between atoms: _33  and  _35
REMARK   13  A    between atoms: _35  and  _36
REMARK   14  A    between atoms: _35  and  _38
REMARK   15  A    between atoms: _38  and  _39
REMARK   16  A    between atoms: _44  and  _46
REMARK   17  A    between atoms: _46  and  _47
REMARK   18  A    between atoms: _46  and  _49
REMARK   19  A    between atoms: _49  and  _50
REMARK   20  A    between atoms: _56  and  _58
REMARK   21  A    between atoms: _58  and  _59
REMARK   22  A    between atoms: _58  and  _61
REMARK   23  A    between atoms: _61  and  _62
REMARK   24  A    between atoms: _62  and  _63
REMARK   25  A    between atoms: _66  and  _68
REMARK   26  A    between atoms: _68  and  _69
REMARK   27  A    between atoms: _68  and  _71
REMARK   28  A    between atoms: _71  and  _72
REMARK   29  A    between atoms: _72  and  _73
REMARK   30  A    between atoms: _75  and  _77
REMARK   31  A    between atoms: _77  and  _78
REMARK   32  A    between atoms: _77  and  _80
REMARK   33  A    between atoms: _80  and  _81
REMARK   34  A    between atoms: _86  and  _87
REMARK   35  A    between atoms: _89  and  _91
REMARK   36  A    between atoms: _91  and  _92
REMARK   37  A    between atoms: _91  and  _94
REMARK   38  A    between atoms: _94  and  _95
REMARK   39  A    between atoms: _98  and  _100
REMARK   40  A    between atoms: _100  and  _101
REMARK   41  A    between atoms: _100  and  _103
REMARK   42  A    between atoms: _103  and  _104
REMARK   43  A    between atoms: _107  and  _109
REMARK   44  A    between atoms: _109  and  _110
REMARK   45  A    between atoms: _109  and  _112
REMARK   46  A    between atoms: _112  and  _113
REMARK   47  A    between atoms: _116  and  _118
REMARK   48  A    between atoms: _118  and  _119
REMARK   49  A    between atoms: _118  and  _121
REMARK   50  A    between atoms: _121  and  _122
REMARK   51  A    between atoms: _125  and  _127
REMARK   52  A    between atoms: _127  and  _128
REMARK   53  A    between atoms: _131  and  _133
REMARK   54  A    between atoms: _133  and  _134
REMARK   55  A    between atoms: _137  and  _139
REMARK   56  A    between atoms: _139  and  _140
REMARK   57  A    between atoms: _139  and  _142
REMARK   58  A    between atoms: _145  and  _147
REMARK   59  A    between atoms: _147  and  _148
REMARK   60  A    between atoms: _147  and  _150
REMARK   61  A    between atoms: _150  and  _151
REMARK   62  A    between atoms: _161  and  _163
REMARK   63  A    between atoms: _163  and  _164
REMARK   64  A    between atoms: _166  and  _168
REMARK   65  A    between atoms: _168  and  _169
REMARK   66  A    between atoms: _172  and  _174
REMARK   67  A    between atoms: _174  and  _175
REMARK   68  A    between atoms: _174  and  _177
REMARK   69  A    between atoms: _177  and  _178
REMARK   70  A    between atoms: _178  and  _179
REMARK   71  A    between atoms: _182  and  _184
REMARK   72  A    between atoms: _184  and  _185
REMARK   73  A    between atoms: _184  and  _187
REMARK   74  A    between atoms: _187  and  _188
REMARK   75  A    between atoms: _191  and  _193
REMARK   76  A    between atoms: _193  and  _194
REMARK   77  A    between atoms: _197  and  _199
REMARK   78  A    between atoms: _199  and  _200
REMARK   79  A    between atoms: _199  and  _202
REMARK   80  A    between atoms: _202  and  _203
REMARK   81  A    between atoms: _207  and  _208
REMARK   82  A    between atoms: _213  and  _215
REMARK   83  A    between atoms: _215  and  _216
REMARK   84  A    between atoms: _215  and  _218
REMARK   85  A    between atoms: _218  and  _219
REMARK   86  A    between atoms: _224  and  _226
REMARK   87  A    between atoms: _226  and  _227
REMARK   88  A    between atoms: _226  and  _229
REMARK   89  A    between atoms: _232  and  _234
REMARK   90  A    between atoms: _234  and  _235
REMARK   91  A    between atoms: _234  and  _237
REMARK   92  A    between atoms: _237  and  _238
REMARK   93  A    between atoms: _241  and  _243
REMARK   94  A    between atoms: _243  and  _244
REMARK   95  A    between atoms: _243  and  _246
REMARK   96  A    between atoms: _246  and  _247
REMARK   97  A    between atoms: _250  and  _252
REMARK   98  A    between atoms: _252  and  _253
REMARK   99  A    between atoms: _252  and  _255
REMARK  100  A    between atoms: _255  and  _256
REMARK  101  A    between atoms: _256  and  _257
REMARK  102  A    between atoms: _257  and  _258
REMARK  103  A    between atoms: _258  and  _259
REMARK  104  A    between atoms: _263  and  _265
REMARK  105  A    between atoms: _265  and  _266
REMARK  106  A    between atoms: _265  and  _268
REMARK  107  A    between atoms: _268  and  _269
REMARK  108  A    between atoms: _269  and  _270
REMARK  109  A    between atoms: _270  and  _271
REMARK  110  A    between atoms: _271  and  _272
REMARK  111  A    between atoms: _276  and  _278
REMARK  112  A    between atoms: _278  and  _279
REMARK  113  A    between atoms: _278  and  _281
REMARK  114  A    between atoms: _281  and  _282
REMARK  115  A    between atoms: _286  and  _287
REMARK  116  A    between atoms: _292  and  _294
REMARK  117  A    between atoms: _294  and  _295
REMARK  118  A    between atoms: _297  and  _299
REMARK  119  A    between atoms: _299  and  _300
REMARK  120  A    between atoms: _299  and  _302
REMARK  121  A    between atoms: _302  and  _303
REMARK  122  A    between atoms: _309  and  _310
REMARK  123  A    between atoms: _315  and  _317
REMARK  124  A    between atoms: _317  and  _318
REMARK  125  A    between atoms: _317  and  _320
REMARK  126  A    between atoms: _320  and  _321
REMARK  127  A    between atoms: _324  and  _326
REMARK  128  A    between atoms: _326  and  _327
REMARK  129  A    between atoms: _326  and  _329
REMARK  130  A    between atoms: _329  and  _330
REMARK  131  A    between atoms: _330  and  _331
REMARK  132  A    between atoms: _331  and  _332
REMARK  133  A    between atoms: _341  and  _343
REMARK  134  A    between atoms: _343  and  _344
REMARK  135  A    between atoms: _343  and  _346
REMARK  136  A    between atoms: _346  and  _347
REMARK  137  A    between atoms: _349  and  _351
REMARK  138  A    between atoms: _351  and  _352
REMARK  139  A    between atoms: _351  and  _354
REMARK  140  A    between atoms: _354  and  _355
REMARK  141  A    between atoms: _360  and  _361
REMARK  142  A    between atoms: _363  and  _365
REMARK  143  A    between atoms: _365  and  _366
REMARK  144  A    between atoms: _365  and  _368
REMARK  145  A    between atoms: _368  and  _369
REMARK  146  A    between atoms: _374  and  _376
REMARK  147  A    between atoms: _376  and  _377
REMARK  148  A    between atoms: _376  and  _379
REMARK  149  A    between atoms: _379  and  _380
REMARK  150  A    between atoms: _380  and  _381
REMARK  151  A    between atoms: _386  and  _388
REMARK  152  A    between atoms: _388  and  _389
REMARK  153  A    between atoms: _388  and  _391
REMARK  154  A    between atoms: _391  and  _392
REMARK  155  A    between atoms: _395  and  _397
REMARK  156  A    between atoms: _397  and  _398
REMARK  157  A    between atoms: _401  and  _403
REMARK  158  A    between atoms: _403  and  _404
REMARK  159  A    between atoms: _407  and  _409
REMARK  160  A    between atoms: _409  and  _410
REMARK  161  A    between atoms: _409  and  _412
REMARK  162  A    between atoms: _412  and  _413
REMARK  163  A    between atoms: _413  and  _414
REMARK  164  A    between atoms: _416  and  _418
REMARK  165  A    between atoms: _418  and  _419
REMARK  166  A    between atoms: _418  and  _421
REMARK  167  A    between atoms: _421  and  _422
REMARK  168  A    between atoms: _422  and  _423
REMARK  169  A    between atoms: _423  and  _424
REMARK  170  A    between atoms: _433  and  _435
REMARK  171  A    between atoms: _435  and  _436
REMARK  172  A    between atoms: _435  and  _438
REMARK  173  A    between atoms: _438  and  _439
REMARK  174  A    between atoms: _439  and  _440
REMARK  175  A    between atoms: _445  and  _447
REMARK  176  A    between atoms: _447  and  _448
REMARK  177  A    between atoms: _450  and  _452
REMARK  178  A    between atoms: _452  and  _453
REMARK  179  A    between atoms: _452  and  _455
REMARK  180  A    between atoms: _455  and  _456
REMARK  181  A    between atoms: _459  and  _461
REMARK  182  A    between atoms: _461  and  _462
REMARK  183  A    between atoms: _461  and  _464
REMARK  184  A    between atoms: _464  and  _465
REMARK  185  A    between atoms: _465  and  _466
REMARK  186  A    between atoms: _469  and  _471
REMARK  187  A    between atoms: _471  and  _472
REMARK  188  A    between atoms: _471  and  _474
REMARK  189  A    between atoms: _474  and  _475
REMARK  190  A    between atoms: _475  and  _476
REMARK  191  A    between atoms: _479  and  _481
REMARK  192  A    between atoms: _481  and  _482
REMARK  193  A    between atoms: _481  and  _484
REMARK  194  A    between atoms: _484  and  _485
REMARK  195  A    between atoms: _488  and  _490
REMARK  196  A    between atoms: _490  and  _491
REMARK  197  A    between atoms: _490  and  _493
REMARK  198  A    between atoms: _493  and  _494
REMARK  199  A    between atoms: _494  and  _495
REMARK  200  A    between atoms: _495  and  _496
REMARK  201  A    between atoms: _505  and  _507
REMARK  202  A    between atoms: _507  and  _508
REMARK  203  A    between atoms: _507  and  _510
REMARK  204  A    between atoms: _510  and  _511
REMARK  205  A    between atoms: _514  and  _516
REMARK  206  A    between atoms: _516  and  _517
REMARK  207  A    between atoms: _520  and  _522
REMARK  208  A    between atoms: _522  and  _523
REMARK  209  A    between atoms: _522  and  _525
REMARK  210  A    between atoms: _528  and  _530
REMARK  211  A    between atoms: _530  and  _531
REMARK  212  A    between atoms: _530  and  _533
REMARK  213  A    between atoms: _533  and  _534
REMARK  214  A    between atoms: _537  and  _539
REMARK  215  A    between atoms: _539  and  _540
REMARK  216  A    between atoms: _539  and  _542
REMARK  217  A    between atoms: _542  and  _543
REMARK  218  A    between atoms: _548  and  _549
REMARK                            x       y       z     vdW  Elec       q    Type
REMARK                         _______ _______ _______ _____ _____    ______ ____
ROOT
ATOM      1  CA  PHE A   2      -3.289   0.148 -14.175  0.00  0.00    +0.141 C 
ENDROOT
BRANCH   1   4
ATOM      2  C   PRO A   1      -2.750   2.376 -13.289  0.00  0.00    +0.239 C 
ATOM      3  O   PRO A   1      -1.532   2.223 -13.433  0.00  0.00    -0.274 OA
ATOM      4  N   PHE A   2      -3.637   1.404 -13.499  0.00  0.00    -0.298 N 
ATOM      5  H   PHE A   2      -4.614   1.540 -13.171  0.00  0.00    +0.150 HD
BRANCH   2  10
ATOM      6  N   PRO A   1      -2.426   4.257 -11.755  0.00  0.00    -0.210 NA
ATOM      7  CD  PRO A   1      -1.936   5.596 -12.105  0.00  0.00    +0.089 C 
ATOM      8  CG  PRO A   1      -2.736   5.950 -13.311  0.00  0.00    +0.021 C 
ATOM      9  CB  PRO A   1      -3.278   4.742 -13.921  0.00  0.00    +0.028 C 
ATOM     10  CA  PRO A   1      -3.302   3.694 -12.788  0.00  0.00    +0.149 C 
ENDBRANCH   2  10
ENDBRANCH   1   4
BRANCH   1  11
ATOM     11  C   PHE A   2      -2.562  -0.808 -13.245  0.00  0.00    +0.227 C 
ATOM     12  O   PHE A   2      -2.190  -1.864 -13.675  0.00  0.00    -0.286 OA
ENDBRANCH   1  11
BRANCH   1  13
ATOM     13  CB  PHE A   2      -2.514   0.359 -15.505  0.00  0.00    +0.054 C 
BRANCH  13  14
ATOM     14  CG  PHE A   2      -2.965   1.561 -16.310  0.00  0.00    -0.020 A 
ATOM     15  CD2 PHE A   2      -4.319   1.802 -16.562  0.00  0.00    -0.004 A 
ATOM     16  CE2 PHE A   2      -4.742   2.935 -17.314  0.00  0.00    -0.000 A 
ATOM     17  CZ  PHE A   2      -3.760   3.812 -17.803  0.00  0.00    -0.000 A 
ATOM     18  CE1 PHE A   2      -2.414   3.548 -17.574  0.00  0.00    -0.000 A 
ATOM     19  CD1 PHE A   2      -2.024   2.450 -16.829  0.00  0.00    -0.004 A 
ENDBRANCH  13  14
ENDBRANCH   1  13
TORSDOF 5
REMARK  Name = ../refined-set-2016/2hw2/2hw2_pocket.pdb
REMARK  218 active torsions:
REMARK  status: ('A' for Active; 'I' for Inactive)
REMARK    1  A    between atoms: _2  and  _3
REMARK    2  A    between atoms: _8  and  _10
REMARK    3  A    between atoms: _10  and  _11
REMARK    4  A    between atoms: _10  and  _13
REMARK    5  A    between atoms: _13  and  _14
REMARK    6  A    between atoms: _20  and  _22
REMARK    7  A    between atoms: _22  and  _23
REMARK    8  A    between atoms: _25  and  _27
REMARK    9  A    between atoms: _27  and  _28
REMARK   10  A    between atoms: _27  and  _30
REMARK   11  A    between atoms: _30  and  _31
REMARK   12  A    between atoms: _33  and  _35
REMARK   13  A    between atoms: _35  and  _36
REMARK   14  A    between atoms: _35  and  _38
REMARK   15  A    between atoms: _38  and  _39
REMARK   16  A    between atoms: _44  and  _46
REMARK   17  A    between atoms: _46  and  _47
REMARK   18  A    between atoms: _46  and  _49
REMARK   19  A    between atoms: _49  and  _50
REMARK   20  A    between atoms: _56  and  _58
REMARK   21  A    between atoms: _58  and  _59
REMARK   22  A    between atoms: _58  and  _61
REMARK   23  A    between atoms: _61  and  _62
REMARK   24  A    between atoms: _62  and  _63
REMARK   25  A    between atoms: _66  and  _68
REMARK   26  A    between atoms: _68  and  _69
REMARK   27  A    between atoms: _68  and  _71
REMARK   28  A    between atoms: _71  and  _72
REMARK   29  A    between atoms: _72  and  _73
REMARK   30  A    between atoms: _75  and  _77
REMARK   31  A    between atoms: _77  and  _78
REMARK   32  A    between atoms: _77  and  _80
REMARK   33  A    between atoms: _80  and  _81
REMARK   34  A    between atoms: _86  and  _87
REMARK   35  A    between atoms: _89  and  _91
REMARK   36  A    between atoms: _91  and  _92
REMARK   37  A    between atoms: _91  and  _94
REMARK   38  A    between atoms: _94  and  _95
REMARK   39  A    between atoms: _98  and  _100
REMARK   40  A    between atoms: _100  and  _101
REMARK   41  A    between atoms: _100  and  _103
REMARK   42  A    between atoms: _103  and  _104
REMARK   43  A    between atoms: _107  and  _109
REMARK   44  A    between atoms: _109  and  _110
REMARK   45  A    between atoms: _109  and  _112
REMARK   46  A    between atoms: _112  and  _113
REMARK   47  A    between atoms: _116  and  _118
REMARK   48  A    between atoms: _118  and  _119
REMARK   49  A    between atoms: _118  and  _121
REMARK   50  A    between atoms: _121  and  _122
REMARK   51  A    between atoms: _125  and  _127
REMARK   52  A    between atoms: _127  and  _128
REMARK   53  A    between atoms: _131  and  _133
REMARK   54  A    between atoms: _133  and  _134
REMARK   55  A    between atoms: _137  and  _139
REMARK   56  A    between atoms: _139  and  _140
REMARK   57  A    between atoms: _139  and  _142
REMARK   58  A    between atoms: _145  and  _147
REMARK   59  A    between atoms: _147  and  _148
REMARK   60  A    between atoms: _147  and  _150
REMARK   61  A    between atoms: _150  and  _151
REMARK   62  A    between atoms: _161  and  _163
REMARK   63  A    between atoms: _163  and  _164
REMARK   64  A    between atoms: _166  and  _168
REMARK   65  A    between atoms: _168  and  _169
REMARK   66  A    between atoms: _172  and  _174
REMARK   67  A    between atoms: _174  and  _175
REMARK   68  A    between atoms: _174  and  _177
REMARK   69  A    between atoms: _177  and  _178
REMARK   70  A    between atoms: _178  and  _179
REMARK   71  A    between atoms: _182  and  _184
REMARK   72  A    between atoms: _184  and  _185
REMARK   73  A    between atoms: _184  and  _187
REMARK   74  A    between atoms: _187  and  _188
REMARK   75  A    between atoms: _191  and  _193
REMARK   76  A    between atoms: _193  and  _194
REMARK   77  A    between atoms: _197  and  _199
REMARK   78  A    between atoms: _199  and  _200
REMARK   79  A    between atoms: _199  and  _202
REMARK   80  A    between atoms: _202  and  _203
REMARK   81  A    between atoms: _207  and  _208
REMARK   82  A    between atoms: _213  and  _215
REMARK   83  A    between atoms: _215  and  _216
REMARK   84  A    between atoms: _215  and  _218
REMARK   85  A    between atoms: _218  and  _219
REMARK   86  A    between atoms: _224  and  _226
REMARK   87  A    between atoms: _226  and  _227
REMARK   88  A    between atoms: _226  and  _229
REMARK   89  A    between atoms: _232  and  _234
REMARK   90  A    between atoms: _234  and  _235
REMARK   91  A    between atoms: _234  and  _237
REMARK   92  A    between atoms: _237  and  _238
REMARK   93  A    between atoms: _241  and  _243
REMARK   94  A    between atoms: _243  and  _244
REMARK   95  A    between atoms: _243  and  _246
REMARK   96  A    between atoms: _246  and  _247
REMARK   97  A    between atoms: _250  and  _252
REMARK   98  A    between atoms: _252  and  _253
REMARK   99  A    between atoms: _252  and  _255
REMARK  100  A    between atoms: _255  and  _256
REMARK  101  A    between atoms: _256  and  _257
REMARK  102  A    between atoms: _257  and  _258
REMARK  103  A    between atoms: _258  and  _259
REMARK  104  A    between atoms: _263  and  _265
REMARK  105  A    between atoms: _265  and  _266
REMARK  106  A    between atoms: _265  and  _268
REMARK  107  A    between atoms: _268  and  _269
REMARK  108  A    between atoms: _269  and  _270
REMARK  109  A    between atoms: _270  and  _271
REMARK  110  A    between atoms: _271  and  _272
REMARK  111  A    between atoms: _276  and  _278
REMARK  112  A    between atoms: _278  and  _279
REMARK  113  A    between atoms: _278  and  _281
REMARK  114  A    between atoms: _281  and  _282
REMARK  115  A    between atoms: _286  and  _287
REMARK  116  A    between atoms: _292  and  _294
REMARK  117  A    between atoms: _294  and  _295
REMARK  118  A    between atoms: _297  and  _299
REMARK  119  A    between atoms: _299  and  _300
REMARK  120  A    between atoms: _299  and  _302
REMARK  121  A    between atoms: _302  and  _303
REMARK  122  A    between atoms: _309  and  _310
REMARK  123  A    between atoms: _315  and  _317
REMARK  124  A    between atoms: _317  and  _318
REMARK  125  A    between atoms: _317  and  _320
REMARK  126  A    between atoms: _320  and  _321
REMARK  127  A    between atoms: _324  and  _326
REMARK  128  A    between atoms: _326  and  _327
REMARK  129  A    between atoms: _326  and  _329
REMARK  130  A    between atoms: _329  and  _330
REMARK  131  A    between atoms: _330  and  _331
REMARK  132  A    between atoms: _331  and  _332
REMARK  133  A    between atoms: _341  and  _343
REMARK  134  A    between atoms: _343  and  _344
REMARK  135  A    between atoms: _343  and  _346
REMARK  136  A    between atoms: _346  and  _347
REMARK  137  A    between atoms: _349  and  _351
REMARK  138  A    between atoms: _351  and  _352
REMARK  139  A    between atoms: _351  and  _354
REMARK  140  A    between atoms: _354  and  _355
REMARK  141  A    between atoms: _360  and  _361
REMARK  142  A    between atoms: _363  and  _365
REMARK  143  A    between atoms: _365  and  _366
REMARK  144  A    between atoms: _365  and  _368
REMARK  145  A    between atoms: _368  and  _369
REMARK  146  A    between atoms: _374  and  _376
REMARK  147  A    between atoms: _376  and  _377
REMARK  148  A    between atoms: _376  and  _379
REMARK  149  A    between atoms: _379  and  _380
REMARK  150  A    between atoms: _380  and  _381
REMARK  151  A    between atoms: _386  and  _388
REMARK  152  A    between atoms: _388  and  _389
REMARK  153  A    between atoms: _388  and  _391
REMARK  154  A    between atoms: _391  and  _392
REMARK  155  A    between atoms: _395  and  _397
REMARK  156  A    between atoms: _397  and  _398
REMARK  157  A    between atoms: _401  and  _403
REMARK  158  A    between atoms: _403  and  _404
REMARK  159  A    between atoms: _407  and  _409
REMARK  160  A    between atoms: _409  and  _410
REMARK  161  A    between atoms: _409  and  _412
REMARK  162  A    between atoms: _412  and  _413
REMARK  163  A    between atoms: _413  and  _414
REMARK  164  A    between atoms: _416  and  _418
REMARK  165  A    between atoms: _418  and  _419
REMARK  166  A    between atoms: _418  and  _421
REMARK  167  A    between atoms: _421  and  _422
REMARK  168  A    between atoms: _422  and  _423
REMARK  169  A    between atoms: _423  and  _424
REMARK  170  A    between atoms: _433  and  _435
REMARK  171  A    between atoms: _435  and  _436
REMARK  172  A    between atoms: _435  and  _438
REMARK  173  A    between atoms: _438  and  _439
REMARK  174  A    between atoms: _439  and  _440
REMARK  175  A    between atoms: _445  and  _447
REMARK  176  A    between atoms: _447  and  _448
REMARK  177  A    between atoms: _450  and  _452
REMARK  178  A    between atoms: _452  and  _453
REMARK  179  A    between atoms: _452  and  _455
REMARK  180  A    between atoms: _455  and  _456
REMARK  181  A    between atoms: _459  and  _461
REMARK  182  A    between atoms: _461  and  _462
REMARK  183  A    between atoms: _461  and  _464
REMARK  184  A    between atoms: _464  and  _465
REMARK  185  A    between atoms: _465  and  _466
REMARK  186  A    between atoms: _469  and  _471
REMARK  187  A    between atoms: _471  and  _472
REMARK  188  A    between atoms: _471  and  _474
REMARK  189  A    between atoms: _474  and  _475
REMARK  190  A    between atoms: _475  and  _476
REMARK  191  A    between atoms: _479  and  _481
REMARK  192  A    between atoms: _481  and  _482
REMARK  193  A    between atoms: _481  and  _484
REMARK  194  A    between atoms: _484  and  _485
REMARK  195  A    between atoms: _488  and  _490
REMARK  196  A    between atoms: _490  and  _491
REMARK  197  A    between atoms: _490  and  _493
REMARK  198  A    between atoms: _493  and  _494
REMARK  199  A    between atoms: _494  and  _495
REMARK  200  A    between atoms: _495  and  _496
REMARK  201  A    between atoms: _505  and  _507
REMARK  202  A    between atoms: _507  and  _508
REMARK  203  A    between atoms: _507  and  _510
REMARK  204  A    between atoms: _510  and  _511
REMARK  205  A    between atoms: _514  and  _516
REMARK  206  A    between atoms: _516  and  _517
REMARK  207  A    between atoms: _520  and  _522
REMARK  208  A    between atoms: _522  and  _523
REMARK  209  A    between atoms: _522  and  _525
REMARK  210  A    between atoms: _528  and  _530
REMARK  211  A    between atoms: _530  and  _531
REMARK  212  A    between atoms: _530  and  _533
REMARK  213  A    between atoms: _533  and  _534
REMARK  214  A    between atoms: _537  and  _539
REMARK  215  A    between atoms: _539  and  _540
REMARK  216  A    between atoms: _539  and  _542
REMARK  217  A    between atoms: _542  and  _543
REMARK  218  A    between atoms: _548  and  _549
REMARK                            x       y       z     vdW  Elec       q    Type
REMARK                         _______ _______ _______ _____ _____    ______ ____
ROOT
ATOM      1  CA  GLY A   1     -16.259   1.897  -5.153  0.00  0.00    +0.156 C 
ENDROOT
BRANCH   1   2
ATOM      2  N   GLY A   1     -16.226   0.621  -5.834  0.00  0.00    -0.238 NA
ATOM      3  H   GLY A   1     -16.065   0.579  -6.861  0.00  0.00    +0.142 HD
ENDBRANCH   1   2
BRANCH   1   4
ATOM      4  C   GLY A   1     -17.641   2.534  -5.314  0.00  0.00    +0.226 C 
ATOM      5  O   GLY A   1     -18.284   2.449  -6.356  0.00  0.00    -0.287 OA
ENDBRANCH   1   4
TORSDOF 2
REMARK  Name = ../refined-set-2016/2hw2/2hw2_pocket.pdb
REMARK  218 active torsions:
REMARK  status: ('A' for Active; 'I' for Inactive)
REMARK    1  A    between atoms: _2  and  _3
REMARK    2  A    between atoms: _8  and  _10
REMARK    3  A    between atoms: _10  and  _11
REMARK    4  A    between atoms: _10  and  _13
REMARK    5  A    between atoms: _13  and  _14
REMARK    6  A    between atoms: _20  and  _22
REMARK    7  A    between atoms: _22  and  _23
REMARK    8  A    between atoms: _25  and  _27
REMARK    9  A    between atoms: _27  and  _28
REMARK   10  A    between atoms: _27  and  _30
REMARK   11  A    between atoms: _30  and  _31
REMARK   12  A    between atoms: _33  and  _35
REMARK   13  A    between atoms: _35  and  _36
REMARK   14  A    between atoms: _35  and  _38
REMARK   15  A    between atoms: _38  and  _39
REMARK   16  A    between atoms: _44  and  _46
REMARK   17  A    between atoms: _46  and  _47
REMARK   18  A    between atoms: _46  and  _49
REMARK   19  A    between atoms: _49  and  _50
REMARK   20  A    between atoms: _56  and  _58
REMARK   21  A    between atoms: _58  and  _59
REMARK   22  A    between atoms: _58  and  _61
REMARK   23  A    between atoms: _61  and  _62
REMARK   24  A    between atoms: _62  and  _63
REMARK   25  A    between atoms: _66  and  _68
REMARK   26  A    between atoms: _68  and  _69
REMARK   27  A    between atoms: _68  and  _71
REMARK   28  A    between atoms: _71  and  _72
REMARK   29  A    between atoms: _72  and  _73
REMARK   30  A    between atoms: _75  and  _77
REMARK   31  A    between atoms: _77  and  _78
REMARK   32  A    between atoms: _77  and  _80
REMARK   33  A    between atoms: _80  and  _81
REMARK   34  A    between atoms: _86  and  _87
REMARK   35  A    between atoms: _89  and  _91
REMARK   36  A    between atoms: _91  and  _92
REMARK   37  A    between atoms: _91  and  _94
REMARK   38  A    between atoms: _94  and  _95
REMARK   39  A    between atoms: _98  and  _100
REMARK   40  A    between atoms: _100  and  _101
REMARK   41  A    between atoms: _100  and  _103
REMARK   42  A    between atoms: _103  and  _104
REMARK   43  A    between atoms: _107  and  _109
REMARK   44  A    between atoms: _109  and  _110
REMARK   45  A    between atoms: _109  and  _112
REMARK   46  A    between atoms: _112  and  _113
REMARK   47  A    between atoms: _116  and  _118
REMARK   48  A    between atoms: _118  and  _119
REMARK   49  A    between atoms: _118  and  _121
REMARK   50  A    between atoms: _121  and  _122
REMARK   51  A    between atoms: _125  and  _127
REMARK   52  A    between atoms: _127  and  _128
REMARK   53  A    between atoms: _131  and  _133
REMARK   54  A    between atoms: _133  and  _134
REMARK   55  A    between atoms: _137  and  _139
REMARK   56  A    between atoms: _139  and  _140
REMARK   57  A    between atoms: _139  and  _142
REMARK   58  A    between atoms: _145  and  _147
REMARK   59  A    between atoms: _147  and  _148
REMARK   60  A    between atoms: _147  and  _150
REMARK   61  A    between atoms: _150  and  _151
REMARK   62  A    between atoms: _161  and  _163
REMARK   63  A    between atoms: _163  and  _164
REMARK   64  A    between atoms: _166  and  _168
REMARK   65  A    between atoms: _168  and  _169
REMARK   66  A    between atoms: _172  and  _174
REMARK   67  A    between atoms: _174  and  _175
REMARK   68  A    between atoms: _174  and  _177
REMARK   69  A    between atoms: _177  and  _178
REMARK   70  A    between atoms: _178  and  _179
REMARK   71  A    between atoms: _182  and  _184
REMARK   72  A    between atoms: _184  and  _185
REMARK   73  A    between atoms: _184  and  _187
REMARK   74  A    between atoms: _187  and  _188
REMARK   75  A    between atoms: _191  and  _193
REMARK   76  A    between atoms: _193  and  _194
REMARK   77  A    between atoms: _197  and  _199
REMARK   78  A    between atoms: _199  and  _200
REMARK   79  A    between atoms: _199  and  _202
REMARK   80  A    between atoms: _202  and  _203
REMARK   81  A    between atoms: _207  and  _208
REMARK   82  A    between atoms: _213  and  _215
REMARK   83  A    between atoms: _215  and  _216
REMARK   84  A    between atoms: _215  and  _218
REMARK   85  A    between atoms: _218  and  _219
REMARK   86  A    between atoms: _224  and  _226
REMARK   87  A    between atoms: _226  and  _227
REMARK   88  A    between atoms: _226  and  _229
REMARK   89  A    between atoms: _232  and  _234
REMARK   90  A    between atoms: _234  and  _235
REMARK   91  A    between atoms: _234  and  _237
REMARK   92  A    between atoms: _237  and  _238
REMARK   93  A    between atoms: _241  and  _243
REMARK   94  A    between atoms: _243  and  _244
REMARK   95  A    between atoms: _243  and  _246
REMARK   96  A    between atoms: _246  and  _247
REMARK   97  A    between atoms: _250  and  _252
REMARK   98  A    between atoms: _252  and  _253
REMARK   99  A    between atoms: _252  and  _255
REMARK  100  A    between atoms: _255  and  _256
REMARK  101  A    between atoms: _256  and  _257
REMARK  102  A    between atoms: _257  and  _258
REMARK  103  A    between atoms: _258  and  _259
REMARK  104  A    between atoms: _263  and  _265
REMARK  105  A    between atoms: _265  and  _266
REMARK  106  A    between atoms: _265  and  _268
REMARK  107  A    between atoms: _268  and  _269
REMARK  108  A    between atoms: _269  and  _270
REMARK  109  A    between atoms: _270  and  _271
REMARK  110  A    between atoms: _271  and  _272
REMARK  111  A    between atoms: _276  and  _278
REMARK  112  A    between atoms: _278  and  _279
REMARK  113  A    between atoms: _278  and  _281
REMARK  114  A    between atoms: _281  and  _282
REMARK  115  A    between atoms: _286  and  _287
REMARK  116  A    between atoms: _292  and  _294
REMARK  117  A    between atoms: _294  and  _295
REMARK  118  A    between atoms: _297  and  _299
REMARK  119  A    between atoms: _299  and  _300
REMARK  120  A    between atoms: _299  and  _302
REMARK  121  A    between atoms: _302  and  _303
REMARK  122  A    between atoms: _309  and  _310
REMARK  123  A    between atoms: _315  and  _317
REMARK  124  A    between atoms: _317  and  _318
REMARK  125  A    between atoms: _317  and  _320
REMARK  126  A    between atoms: _320  and  _321
REMARK  127  A    between atoms: _324  and  _326
REMARK  128  A    between atoms: _326  and  _327
REMARK  129  A    between atoms: _326  and  _329
REMARK  130  A    between atoms: _329  and  _330
REMARK  131  A    between atoms: _330  and  _331
REMARK  132  A    between atoms: _331  and  _332
REMARK  133  A    between atoms: _341  and  _343
REMARK  134  A    between atoms: _343  and  _344
REMARK  135  A    between atoms: _343  and  _346
REMARK  136  A    between atoms: _346  and  _347
REMARK  137  A    between atoms: _349  and  _351
REMARK  138  A    between atoms: _351  and  _352
REMARK  139  A    between atoms: _351  and  _354
REMARK  140  A    between atoms: _354  and  _355
REMARK  141  A    between atoms: _360  and  _361
REMARK  142  A    between atoms: _363  and  _365
REMARK  143  A    between atoms: _365  and  _366
REMARK  144  A    between atoms: _365  and  _368
REMARK  145  A    between atoms: _368  and  _369
REMARK  146  A    between atoms: _374  and  _376
REMARK  147  A    between atoms: _376  and  _377
REMARK  148  A    between atoms: _376  and  _379
REMARK  149  A    between atoms: _379  and  _380
REMARK  150  A    between atoms: _380  and  _381
REMARK  151  A    between atoms: _386  and  _388
REMARK  152  A    between atoms: _388  and  _389
REMARK  153  A    between atoms: _388  and  _391
REMARK  154  A    between atoms: _391  and  _392
REMARK  155  A    between atoms: _395  and  _397
REMARK  156  A    between atoms: _397  and  _398
REMARK  157  A    between atoms: _401  and  _403
REMARK  158  A    between atoms: _403  and  _404
REMARK  159  A    between atoms: _407  and  _409
REMARK  160  A    between atoms: _409  and  _410
REMARK  161  A    between atoms: _409  and  _412
REMARK  162  A    between atoms: _412  and  _413
REMARK  163  A    between atoms: _413  and  _414
REMARK  164  A    between atoms: _416  and  _418
REMARK  165  A    between atoms: _418  and  _419
REMARK  166  A    between atoms: _418  and  _421
REMARK  167  A    between atoms: _421  and  _422
REMARK  168  A    between atoms: _422  and  _423
REMARK  169  A    between atoms: _423  and  _424
REMARK  170  A    between atoms: _433  and  _435
REMARK  171  A    between atoms: _435  and  _436
REMARK  172  A    between atoms: _435  and  _438
REMARK  173  A    between atoms: _438  and  _439
REMARK  174  A    between atoms: _439  and  _440
REMARK  175  A    between atoms: _445  and  _447
REMARK  176  A    between atoms: _447  and  _448
REMARK  177  A    between atoms: _450  and  _452
REMARK  178  A    between atoms: _452  and  _453
REMARK  179  A    between atoms: _452  and  _455
REMARK  180  A    between atoms: _455  and  _456
REMARK  181  A    between atoms: _459  and  _461
REMARK  182  A    between atoms: _461  and  _462
REMARK  183  A    between atoms: _461  and  _464
REMARK  184  A    between atoms: _464  and  _465
REMARK  185  A    between atoms: _465  and  _466
REMARK  186  A    between atoms: _469  and  _471
REMARK  187  A    between atoms: _471  and  _472
REMARK  188  A    between atoms: _471  and  _474
REMARK  189  A    between atoms: _474  and  _475
REMARK  190  A    between atoms: _475  and  _476
REMARK  191  A    between atoms: _479  and  _481
REMARK  192  A    between atoms: _481  and  _482
REMARK  193  A    between atoms: _481  and  _484
REMARK  194  A    between atoms: _484  and  _485
REMARK  195  A    between atoms: _488  and  _490
REMARK  196  A    between atoms: _490  and  _491
REMARK  197  A    between atoms: _490  and  _493
REMARK  198  A    between atoms: _493  and  _494
REMARK  199  A    between atoms: _494  and  _495
REMARK  200  A    between atoms: _495  and  _496
REMARK  201  A    between atoms: _505  and  _507
REMARK  202  A    between atoms: _507  and  _508
REMARK  203  A    between atoms: _507  and  _510
REMARK  204  A    between atoms: _510  and  _511
REMARK  205  A    between atoms: _514  and  _516
REMARK  206  A    between atoms: _516  and  _517
REMARK  207  A    between atoms: _520  and  _522
REMARK  208  A    between atoms: _522  and  _523
REMARK  209  A    between atoms: _522  and  _525
REMARK  210  A    between atoms: _528  and  _530
REMARK  211  A    between atoms: _530  and  _531
REMARK  212  A    between atoms: _530  and  _533
REMARK  213  A    between atoms: _533  and  _534
REMARK  214  A    between atoms: _537  and  _539
REMARK  215  A    between atoms: _539  and  _540
REMARK  216  A    between atoms: _539  and  _542
REMARK  217  A    between atoms: _542  and  _543
REMARK  218  A    between atoms: _548  and  _549
REMARK                            x       y       z     vdW  Elec       q    Type
REMARK                         _______ _______ _______ _____ _____    ______ ____
ROOT
ATOM      1  C   ASN A   2     -23.428   8.558 -12.192  0.00  0.00    +0.241 C 
ATOM      2  O   ASN A   2     -22.889   9.630 -11.773  0.00  0.00    -0.273 OA
ATOM      3  N   PHE A   3     -23.712   8.323 -13.500  0.00  0.00    -0.297 N 
ATOM      4  H   PHE A   3     -24.282   7.497 -13.773  0.00  0.00    +0.150 HD
ENDROOT
BRANCH   3   5
ATOM      5  CA  PHE A   3     -23.203   9.251 -14.529  0.00  0.00    +0.153 C 
BRANCH   5   6
ATOM      6  C   PHE A   3     -24.291   9.800 -15.439  0.00  0.00    +0.241 C 
ATOM      7  N   GLU A   4     -25.463   9.174 -15.453  0.00  0.00    -0.298 N 
ATOM      8  H   GLU A   4     -25.594   8.314 -14.884  0.00  0.00    +0.150 HD
ATOM      9  O   PHE A   3     -23.998  10.726 -16.228  0.00  0.00    -0.273 OA
BRANCH   7  10
ATOM     10  CA  GLU A   4     -26.581   9.687 -16.268  0.00  0.00    +0.137 C 
BRANCH  10  11
ATOM     11  C   GLU A   4     -27.834   9.595 -15.408  0.00  0.00    +0.227 C 
ATOM     12  O   GLU A   4     -28.347   8.528 -15.161  0.00  0.00    -0.286 OA
ENDBRANCH  10  11
BRANCH  10  13
ATOM     13  CB  GLU A   4     -26.723   8.867 -17.560  0.00  0.00    +0.039 C 
BRANCH  13  14
ATOM     14  CG  GLU A   4     -27.795   9.394 -18.517  0.00  0.00    +0.116 C 
BRANCH  14  15
ATOM     15  CD  GLU A   4     -27.791   8.760 -19.886  0.00  0.00    +0.365 C 
ATOM     16  OE2 GLU A   4     -27.145   7.755 -20.075  0.00  0.00    -0.246 OA
ATOM     17  OE1 GLU A   4     -28.416   9.344 -20.816  0.00  0.00    -0.246 OA
ENDBRANCH  14  15
ENDBRANCH  13  14
ENDBRANCH  10  13
ENDBRANCH   7  10
ENDBRANCH   5   6
BRANCH   5  18
ATOM     18  CB  PHE A   3     -22.143   8.565 -15.381  0.00  0.00    +0.055 C 
BRANCH  18  19
ATOM     19  CG  PHE A   3     -20.927   8.214 -14.580  0.00  0.00    -0.020 A 
ATOM     20  CD2 PHE A   3     -20.778   6.960 -14.051  0.00  0.00    -0.004 A 
ATOM     21  CE2 PHE A   3     -19.677   6.667 -13.251  0.00  0.00    -0.000 A 
ATOM     22  CZ  PHE A   3     -18.740   7.680 -12.974  0.00  0.00    -0.000 A 
ATOM     23  CE1 PHE A   3     -18.890   8.954 -13.493  0.00  0.00    -0.000 A 
ATOM     24  CD1 PHE A   3     -19.979   9.217 -14.308  0.00  0.00    -0.004 A 
ENDBRANCH  18  19
ENDBRANCH   5  18
ENDBRANCH   3   5
BRANCH   1  25
ATOM     25  CA  ASN A   2     -23.772   7.455 -11.222  0.00  0.00    +0.158 C 
BRANCH  25  28
ATOM     26  C   SER A   1     -25.853   6.401 -11.977  0.00  0.00    +0.241 C 
ATOM     27  O   SER A   1     -26.523   7.347 -11.600  0.00  0.00    -0.274 OA
ATOM     28  N   ASN A   2     -24.540   6.327 -11.804  0.00  0.00    -0.297 N 
ATOM     29  H   ASN A   2     -24.038   5.460 -12.082  0.00  0.00    +0.150 HD
BRANCH  26  30
ATOM     30  CA  SER A   1     -26.484   5.339 -12.808  0.00  0.00    +0.174 C 
BRANCH  30  31
ATOM     31  N   SER A   1     -27.756   4.923 -12.349  0.00  0.00    -0.236 NA
ATOM     32  H   SER A   1     -28.546   4.901 -13.025  0.00  0.00    +0.142 HD
ENDBRANCH  30  31
BRANCH  30  33
ATOM     33  CB  SER A   1     -26.664   5.858 -14.265  0.00  0.00    +0.163 C 
BRANCH  33  34
ATOM     34  OG  SER A   1     -25.402   6.293 -14.782  0.00  0.00    -0.380 OA
ATOM     35  H   SER A   1     -24.766   5.534 -14.780  0.00  0.00    +0.211 HD
ENDBRANCH  33  34
ENDBRANCH  30  33
ENDBRANCH  26  30
ENDBRANCH  25  28
BRANCH  25  36
ATOM     36  CB  ASN A   2     -22.489   6.890 -10.572  0.00  0.00    +0.114 C 
BRANCH  36  37
ATOM     37  CG  ASN A   2     -22.810   6.129  -9.350  0.00  0.00    +0.222 C 
ATOM     38  OD1 ASN A   2     -23.388   6.691  -8.409  0.00  0.00    -0.275 OA
ATOM     39  ND2 ASN A   2     -22.601   4.819  -9.388  0.00  0.00    -0.329 N 
ATOM     40 HD21 ASN A   2     -22.928   4.217  -8.605  0.00  0.00    +0.145 HD
ATOM     41 HD22 ASN A   2     -22.111   4.394 -10.201  0.00  0.00    +0.145 HD
ENDBRANCH  36  37
ENDBRANCH  25  36
ENDBRANCH   1  25
TORSDOF 17
REMARK  Name = ../refined-set-2016/2hw2/2hw2_pocket.pdb
REMARK  218 active torsions:
REMARK  status: ('A' for Active; 'I' for Inactive)
REMARK    1  A    between atoms: _2  and  _3
REMARK    2  A    between atoms: _8  and  _10
REMARK    3  A    between atoms: _10  and  _11
REMARK    4  A    between atoms: _10  and  _13
REMARK    5  A    between atoms: _13  and  _14
REMARK    6  A    between atoms: _20  and  _22
REMARK    7  A    between atoms: _22  and  _23
REMARK    8  A    between atoms: _25  and  _27
REMARK    9  A    between atoms: _27  and  _28
REMARK   10  A    between atoms: _27  and  _30
REMARK   11  A    between atoms: _30  and  _31
REMARK   12  A    between atoms: _33  and  _35
REMARK   13  A    between atoms: _35  and  _36
REMARK   14  A    between atoms: _35  and  _38
REMARK   15  A    between atoms: _38  and  _39
REMARK   16  A    between atoms: _44  and  _46
REMARK   17  A    between atoms: _46  and  _47
REMARK   18  A    between atoms: _46  and  _49
REMARK   19  A    between atoms: _49  and  _50
REMARK   20  A    between atoms: _56  and  _58
REMARK   21  A    between atoms: _58  and  _59
REMARK   22  A    between atoms: _58  and  _61
REMARK   23  A    between atoms: _61  and  _62
REMARK   24  A    between atoms: _62  and  _63
REMARK   25  A    between atoms: _66  and  _68
REMARK   26  A    between atoms: _68  and  _69
REMARK   27  A    between atoms: _68  and  _71
REMARK   28  A    between atoms: _71  and  _72
REMARK   29  A    between atoms: _72  and  _73
REMARK   30  A    between atoms: _75  and  _77
REMARK   31  A    between atoms: _77  and  _78
REMARK   32  A    between atoms: _77  and  _80
REMARK   33  A    between atoms: _80  and  _81
REMARK   34  A    between atoms: _86  and  _87
REMARK   35  A    between atoms: _89  and  _91
REMARK   36  A    between atoms: _91  and  _92
REMARK   37  A    between atoms: _91  and  _94
REMARK   38  A    between atoms: _94  and  _95
REMARK   39  A    between atoms: _98  and  _100
REMARK   40  A    between atoms: _100  and  _101
REMARK   41  A    between atoms: _100  and  _103
REMARK   42  A    between atoms: _103  and  _104
REMARK   43  A    between atoms: _107  and  _109
REMARK   44  A    between atoms: _109  and  _110
REMARK   45  A    between atoms: _109  and  _112
REMARK   46  A    between atoms: _112  and  _113
REMARK   47  A    between atoms: _116  and  _118
REMARK   48  A    between atoms: _118  and  _119
REMARK   49  A    between atoms: _118  and  _121
REMARK   50  A    between atoms: _121  and  _122
REMARK   51  A    between atoms: _125  and  _127
REMARK   52  A    between atoms: _127  and  _128
REMARK   53  A    between atoms: _131  and  _133
REMARK   54  A    between atoms: _133  and  _134
REMARK   55  A    between atoms: _137  and  _139
REMARK   56  A    between atoms: _139  and  _140
REMARK   57  A    between atoms: _139  and  _142
REMARK   58  A    between atoms: _145  and  _147
REMARK   59  A    between atoms: _147  and  _148
REMARK   60  A    between atoms: _147  and  _150
REMARK   61  A    between atoms: _150  and  _151
REMARK   62  A    between atoms: _161  and  _163
REMARK   63  A    between atoms: _163  and  _164
REMARK   64  A    between atoms: _166  and  _168
REMARK   65  A    between atoms: _168  and  _169
REMARK   66  A    between atoms: _172  and  _174
REMARK   67  A    between atoms: _174  and  _175
REMARK   68  A    between atoms: _174  and  _177
REMARK   69  A    between atoms: _177  and  _178
REMARK   70  A    between atoms: _178  and  _179
REMARK   71  A    between atoms: _182  and  _184
REMARK   72  A    between atoms: _184  and  _185
REMARK   73  A    between atoms: _184  and  _187
REMARK   74  A    between atoms: _187  and  _188
REMARK   75  A    between atoms: _191  and  _193
REMARK   76  A    between atoms: _193  and  _194
REMARK   77  A    between atoms: _197  and  _199
REMARK   78  A    between atoms: _199  and  _200
REMARK   79  A    between atoms: _199  and  _202
REMARK   80  A    between atoms: _202  and  _203
REMARK   81  A    between atoms: _207  and  _208
REMARK   82  A    between atoms: _213  and  _215
REMARK   83  A    between atoms: _215  and  _216
REMARK   84  A    between atoms: _215  and  _218
REMARK   85  A    between atoms: _218  and  _219
REMARK   86  A    between atoms: _224  and  _226
REMARK   87  A    between atoms: _226  and  _227
REMARK   88  A    between atoms: _226  and  _229
REMARK   89  A    between atoms: _232  and  _234
REMARK   90  A    between atoms: _234  and  _235
REMARK   91  A    between atoms: _234  and  _237
REMARK   92  A    between atoms: _237  and  _238
REMARK   93  A    between atoms: _241  and  _243
REMARK   94  A    between atoms: _243  and  _244
REMARK   95  A    between atoms: _243  and  _246
REMARK   96  A    between atoms: _246  and  _247
REMARK   97  A    between atoms: _250  and  _252
REMARK   98  A    between atoms: _252  and  _253
REMARK   99  A    between atoms: _252  and  _255
REMARK  100  A    between atoms: _255  and  _256
REMARK  101  A    between atoms: _256  and  _257
REMARK  102  A    between atoms: _257  and  _258
REMARK  103  A    between atoms: _258  and  _259
REMARK  104  A    between atoms: _263  and  _265
REMARK  105  A    between atoms: _265  and  _266
REMARK  106  A    between atoms: _265  and  _268
REMARK  107  A    between atoms: _268  and  _269
REMARK  108  A    between atoms: _269  and  _270
REMARK  109  A    between atoms: _270  and  _271
REMARK  110  A    between atoms: _271  and  _272
REMARK  111  A    between atoms: _276  and  _278
REMARK  112  A    between atoms: _278  and  _279
REMARK  113  A    between atoms: _278  and  _281
REMARK  114  A    between atoms: _281  and  _282
REMARK  115  A    between atoms: _286  and  _287
REMARK  116  A    between atoms: _292  and  _294
REMARK  117  A    between atoms: _294  and  _295
REMARK  118  A    between atoms: _297  and  _299
REMARK  119  A    between atoms: _299  and  _300
REMARK  120  A    between atoms: _299  and  _302
REMARK  121  A    between atoms: _302  and  _303
REMARK  122  A    between atoms: _309  and  _310
REMARK  123  A    between atoms: _315  and  _317
REMARK  124  A    between atoms: _317  and  _318
REMARK  125  A    between atoms: _317  and  _320
REMARK  126  A    between atoms: _320  and  _321
REMARK  127  A    between atoms: _324  and  _326
REMARK  128  A    between atoms: _326  and  _327
REMARK  129  A    between atoms: _326  and  _329
REMARK  130  A    between atoms: _329  and  _330
REMARK  131  A    between atoms: _330  and  _331
REMARK  132  A    between atoms: _331  and  _332
REMARK  133  A    between atoms: _341  and  _343
REMARK  134  A    between atoms: _343  and  _344
REMARK  135  A    between atoms: _343  and  _346
REMARK  136  A    between atoms: _346  and  _347
REMARK  137  A    between atoms: _349  and  _351
REMARK  138  A    between atoms: _351  and  _352
REMARK  139  A    between atoms: _351  and  _354
REMARK  140  A    between atoms: _354  and  _355
REMARK  141  A    between atoms: _360  and  _361
REMARK  142  A    between atoms: _363  and  _365
REMARK  143  A    between atoms: _365  and  _366
REMARK  144  A    between atoms: _365  and  _368
REMARK  145  A    between atoms: _368  and  _369
REMARK  146  A    between atoms: _374  and  _376
REMARK  147  A    between atoms: _376  and  _377
REMARK  148  A    between atoms: _376  and  _379
REMARK  149  A    between atoms: _379  and  _380
REMARK  150  A    between atoms: _380  and  _381
REMARK  151  A    between atoms: _386  and  _388
REMARK  152  A    between atoms: _388  and  _389
REMARK  153  A    between atoms: _388  and  _391
REMARK  154  A    between atoms: _391  and  _392
REMARK  155  A    between atoms: _395  and  _397
REMARK  156  A    between atoms: _397  and  _398
REMARK  157  A    between atoms: _401  and  _403
REMARK  158  A    between atoms: _403  and  _404
REMARK  159  A    between atoms: _407  and  _409
REMARK  160  A    between atoms: _409  and  _410
REMARK  161  A    between atoms: _409  and  _412
REMARK  162  A    between atoms: _412  and  _413
REMARK  163  A    between atoms: _413  and  _414
REMARK  164  A    between atoms: _416  and  _418
REMARK  165  A    between atoms: _418  and  _419
REMARK  166  A    between atoms: _418  and  _421
REMARK  167  A    between atoms: _421  and  _422
REMARK  168  A    between atoms: _422  and  _423
REMARK  169  A    between atoms: _423  and  _424
REMARK  170  A    between atoms: _433  and  _435
REMARK  171  A    between atoms: _435  and  _436
REMARK  172  A    between atoms: _435  and  _438
REMARK  173  A    between atoms: _438  and  _439
REMARK  174  A    between atoms: _439  and  _440
REMARK  175  A    between atoms: _445  and  _447
REMARK  176  A    between atoms: _447  and  _448
REMARK  177  A    between atoms: _450  and  _452
REMARK  178  A    between atoms: _452  and  _453
REMARK  179  A    between atoms: _452  and  _455
REMARK  180  A    between atoms: _455  and  _456
REMARK  181  A    between atoms: _459  and  _461
REMARK  182  A    between atoms: _461  and  _462
REMARK  183  A    between atoms: _461  and  _464
REMARK  184  A    between atoms: _464  and  _465
REMARK  185  A    between atoms: _465  and  _466
REMARK  186  A    between atoms: _469  and  _471
REMARK  187  A    between atoms: _471  and  _472
REMARK  188  A    between atoms: _471  and  _474
REMARK  189  A    between atoms: _474  and  _475
REMARK  190  A    between atoms: _475  and  _476
REMARK  191  A    between atoms: _479  and  _481
REMARK  192  A    between atoms: _481  and  _482
REMARK  193  A    between atoms: _481  and  _484
REMARK  194  A    between atoms: _484  and  _485
REMARK  195  A    between atoms: _488  and  _490
REMARK  196  A    between atoms: _490  and  _491
REMARK  197  A    between atoms: _490  and  _493
REMARK  198  A    between atoms: _493  and  _494
REMARK  199  A    between atoms: _494  and  _495
REMARK  200  A    between atoms: _495  and  _496
REMARK  201  A    between atoms: _505  and  _507
REMARK  202  A    between atoms: _507  and  _508
REMARK  203  A    between atoms: _507  and  _510
REMARK  204  A    between atoms: _510  and  _511
REMARK  205  A    between atoms: _514  and  _516
REMARK  206  A    between atoms: _516  and  _517
REMARK  207  A    between atoms: _520  and  _522
REMARK  208  A    between atoms: _522  and  _523
REMARK  209  A    between atoms: _522  and  _525
REMARK  210  A    between atoms: _528  and  _530
REMARK  211  A    between atoms: _530  and  _531
REMARK  212  A    between atoms: _530  and  _533
REMARK  213  A    between atoms: _533  and  _534
REMARK  214  A    between atoms: _537  and  _539
REMARK  215  A    between atoms: _539  and  _540
REMARK  216  A    between atoms: _539  and  _542
REMARK  217  A    between atoms: _542  and  _543
REMARK  218  A    between atoms: _548  and  _549
REMARK                            x       y       z     vdW  Elec       q    Type
REMARK                         _______ _______ _______ _____ _____    ______ ____
ROOT
ATOM      1  CA  MET A   1     -28.457   0.025 -14.682  0.00  0.00    +0.134 C 
ENDROOT
BRANCH   1   2
ATOM      2  N   MET A   1     -29.607   0.826 -14.235  0.00  0.00    -0.239 NA
ATOM      3  H   MET A   1     -29.694   1.075 -13.229  0.00  0.00    +0.142 HD
ENDBRANCH   1   2
BRANCH   1   4
ATOM      4  C   MET A   1     -28.726  -1.459 -14.789  0.00  0.00    +0.224 C 
ATOM      5  O   MET A   1     -29.445  -2.032 -13.941  0.00  0.00    -0.287 OA
ENDBRANCH   1   4
BRANCH   1   6
ATOM      6  CB  MET A   1     -27.293   0.192 -13.721  0.00  0.00    +0.037 C 
BRANCH   6   7
ATOM      7  CG  MET A   1     -26.885   1.682 -13.577  0.00  0.00    +0.059 C 
BRANCH   7   8
ATOM      8  SD  MET A   1     -26.294   2.432 -15.129  0.00  0.00    -0.139 S 
ATOM      9  CE  MET A   1     -24.699   1.617 -15.283  0.00  0.00    +0.069 C 
ENDBRANCH   7   8
ENDBRANCH   6   7
ENDBRANCH   1   6
TORSDOF 5
REMARK  Name = ../refined-set-2016/2hw2/2hw2_pocket.pdb
REMARK  218 active torsions:
REMARK  status: ('A' for Active; 'I' for Inactive)
REMARK    1  A    between atoms: _2  and  _3
REMARK    2  A    between atoms: _8  and  _10
REMARK    3  A    between atoms: _10  and  _11
REMARK    4  A    between atoms: _10  and  _13
REMARK    5  A    between atoms: _13  and  _14
REMARK    6  A    between atoms: _20  and  _22
REMARK    7  A    between atoms: _22  and  _23
REMARK    8  A    between atoms: _25  and  _27
REMARK    9  A    between atoms: _27  and  _28
REMARK   10  A    between atoms: _27  and  _30
REMARK   11  A    between atoms: _30  and  _31
REMARK   12  A    between atoms: _33  and  _35
REMARK   13  A    between atoms: _35  and  _36
REMARK   14  A    between atoms: _35  and  _38
REMARK   15  A    between atoms: _38  and  _39
REMARK   16  A    between atoms: _44  and  _46
REMARK   17  A    between atoms: _46  and  _47
REMARK   18  A    between atoms: _46  and  _49
REMARK   19  A    between atoms: _49  and  _50
REMARK   20  A    between atoms: _56  and  _58
REMARK   21  A    between atoms: _58  and  _59
REMARK   22  A    between atoms: _58  and  _61
REMARK   23  A    between atoms: _61  and  _62
REMARK   24  A    between atoms: _62  and  _63
REMARK   25  A    between atoms: _66  and  _68
REMARK   26  A    between atoms: _68  and  _69
REMARK   27  A    between atoms: _68  and  _71
REMARK   28  A    between atoms: _71  and  _72
REMARK   29  A    between atoms: _72  and  _73
REMARK   30  A    between atoms: _75  and  _77
REMARK   31  A    between atoms: _77  and  _78
REMARK   32  A    between atoms: _77  and  _80
REMARK   33  A    between atoms: _80  and  _81
REMARK   34  A    between atoms: _86  and  _87
REMARK   35  A    between atoms: _89  and  _91
REMARK   36  A    between atoms: _91  and  _92
REMARK   37  A    between atoms: _91  and  _94
REMARK   38  A    between atoms: _94  and  _95
REMARK   39  A    between atoms: _98  and  _100
REMARK   40  A    between atoms: _100  and  _101
REMARK   41  A    between atoms: _100  and  _103
REMARK   42  A    between atoms: _103  and  _104
REMARK   43  A    between atoms: _107  and  _109
REMARK   44  A    between atoms: _109  and  _110
REMARK   45  A    between atoms: _109  and  _112
REMARK   46  A    between atoms: _112  and  _113
REMARK   47  A    between atoms: _116  and  _118
REMARK   48  A    between atoms: _118  and  _119
REMARK   49  A    between atoms: _118  and  _121
REMARK   50  A    between atoms: _121  and  _122
REMARK   51  A    between atoms: _125  and  _127
REMARK   52  A    between atoms: _127  and  _128
REMARK   53  A    between atoms: _131  and  _133
REMARK   54  A    between atoms: _133  and  _134
REMARK   55  A    between atoms: _137  and  _139
REMARK   56  A    between atoms: _139  and  _140
REMARK   57  A    between atoms: _139  and  _142
REMARK   58  A    between atoms: _145  and  _147
REMARK   59  A    between atoms: _147  and  _148
REMARK   60  A    between atoms: _147  and  _150
REMARK   61  A    between atoms: _150  and  _151
REMARK   62  A    between atoms: _161  and  _163
REMARK   63  A    between atoms: _163  and  _164
REMARK   64  A    between atoms: _166  and  _168
REMARK   65  A    between atoms: _168  and  _169
REMARK   66  A    between atoms: _172  and  _174
REMARK   67  A    between atoms: _174  and  _175
REMARK   68  A    between atoms: _174  and  _177
REMARK   69  A    between atoms: _177  and  _178
REMARK   70  A    between atoms: _178  and  _179
REMARK   71  A    between atoms: _182  and  _184
REMARK   72  A    between atoms: _184  and  _185
REMARK   73  A    between atoms: _184  and  _187
REMARK   74  A    between atoms: _187  and  _188
REMARK   75  A    between atoms: _191  and  _193
REMARK   76  A    between atoms: _193  and  _194
REMARK   77  A    between atoms: _197  and  _199
REMARK   78  A    between atoms: _199  and  _200
REMARK   79  A    between atoms: _199  and  _202
REMARK   80  A    between atoms: _202  and  _203
REMARK   81  A    between atoms: _207  and  _208
REMARK   82  A    between atoms: _213  and  _215
REMARK   83  A    between atoms: _215  and  _216
REMARK   84  A    between atoms: _215  and  _218
REMARK   85  A    between atoms: _218  and  _219
REMARK   86  A    between atoms: _224  and  _226
REMARK   87  A    between atoms: _226  and  _227
REMARK   88  A    between atoms: _226  and  _229
REMARK   89  A    between atoms: _232  and  _234
REMARK   90  A    between atoms: _234  and  _235
REMARK   91  A    between atoms: _234  and  _237
REMARK   92  A    between atoms: _237  and  _238
REMARK   93  A    between atoms: _241  and  _243
REMARK   94  A    between atoms: _243  and  _244
REMARK   95  A    between atoms: _243  and  _246
REMARK   96  A    between atoms: _246  and  _247
REMARK   97  A    between atoms: _250  and  _252
REMARK   98  A    between atoms: _252  and  _253
REMARK   99  A    between atoms: _252  and  _255
REMARK  100  A    between atoms: _255  and  _256
REMARK  101  A    between atoms: _256  and  _257
REMARK  102  A    between atoms: _257  and  _258
REMARK  103  A    between atoms: _258  and  _259
REMARK  104  A    between atoms: _263  and  _265
REMARK  105  A    between atoms: _265  and  _266
REMARK  106  A    between atoms: _265  and  _268
REMARK  107  A    between atoms: _268  and  _269
REMARK  108  A    between atoms: _269  and  _270
REMARK  109  A    between atoms: _270  and  _271
REMARK  110  A    between atoms: _271  and  _272
REMARK  111  A    between atoms: _276  and  _278
REMARK  112  A    between atoms: _278  and  _279
REMARK  113  A    between atoms: _278  and  _281
REMARK  114  A    between atoms: _281  and  _282
REMARK  115  A    between atoms: _286  and  _287
REMARK  116  A    between atoms: _292  and  _294
REMARK  117  A    between atoms: _294  and  _295
REMARK  118  A    between atoms: _297  and  _299
REMARK  119  A    between atoms: _299  and  _300
REMARK  120  A    between atoms: _299  and  _302
REMARK  121  A    between atoms: _302  and  _303
REMARK  122  A    between atoms: _309  and  _310
REMARK  123  A    between atoms: _315  and  _317
REMARK  124  A    between atoms: _317  and  _318
REMARK  125  A    between atoms: _317  and  _320
REMARK  126  A    between atoms: _320  and  _321
REMARK  127  A    between atoms: _324  and  _326
REMARK  128  A    between atoms: _326  and  _327
REMARK  129  A    between atoms: _326  and  _329
REMARK  130  A    between atoms: _329  and  _330
REMARK  131  A    between atoms: _330  and  _331
REMARK  132  A    between atoms: _331  and  _332
REMARK  133  A    between atoms: _341  and  _343
REMARK  134  A    between atoms: _343  and  _344
REMARK  135  A    between atoms: _343  and  _346
REMARK  136  A    between atoms: _346  and  _347
REMARK  137  A    between atoms: _349  and  _351
REMARK  138  A    between atoms: _351  and  _352
REMARK  139  A    between atoms: _351  and  _354
REMARK  140  A    between atoms: _354  and  _355
REMARK  141  A    between atoms: _360  and  _361
REMARK  142  A    between atoms: _363  and  _365
REMARK  143  A    between atoms: _365  and  _366
REMARK  144  A    between atoms: _365  and  _368
REMARK  145  A    between atoms: _368  and  _369
REMARK  146  A    between atoms: _374  and  _376
REMARK  147  A    between atoms: _376  and  _377
REMARK  148  A    between atoms: _376  and  _379
REMARK  149  A    between atoms: _379  and  _380
REMARK  150  A    between atoms: _380  and  _381
REMARK  151  A    between atoms: _386  and  _388
REMARK  152  A    between atoms: _388  and  _389
REMARK  153  A    between atoms: _388  and  _391
REMARK  154  A    between atoms: _391  and  _392
REMARK  155  A    between atoms: _395  and  _397
REMARK  156  A    between atoms: _397  and  _398
REMARK  157  A    between atoms: _401  and  _403
REMARK  158  A    between atoms: _403  and  _404
REMARK  159  A    between atoms: _407  and  _409
REMARK  160  A    between atoms: _409  and  _410
REMARK  161  A    between atoms: _409  and  _412
REMARK  162  A    between atoms: _412  and  _413
REMARK  163  A    between atoms: _413  and  _414
REMARK  164  A    between atoms: _416  and  _418
REMARK  165  A    between atoms: _418  and  _419
REMARK  166  A    between atoms: _418  and  _421
REMARK  167  A    between atoms: _421  and  _422
REMARK  168  A    between atoms: _422  and  _423
REMARK  169  A    between atoms: _423  and  _424
REMARK  170  A    between atoms: _433  and  _435
REMARK  171  A    between atoms: _435  and  _436
REMARK  172  A    between atoms: _435  and  _438
REMARK  173  A    between atoms: _438  and  _439
REMARK  174  A    between atoms: _439  and  _440
REMARK  175  A    between atoms: _445  and  _447
REMARK  176  A    between atoms: _447  and  _448
REMARK  177  A    between atoms: _450  and  _452
REMARK  178  A    between atoms: _452  and  _453
REMARK  179  A    between atoms: _452  and  _455
REMARK  180  A    between atoms: _455  and  _456
REMARK  181  A    between atoms: _459  and  _461
REMARK  182  A    between atoms: _461  and  _462
REMARK  183  A    between atoms: _461  and  _464
REMARK  184  A    between atoms: _464  and  _465
REMARK  185  A    between atoms: _465  and  _466
REMARK  186  A    between atoms: _469  and  _471
REMARK  187  A    between atoms: _471  and  _472
REMARK  188  A    between atoms: _471  and  _474
REMARK  189  A    between atoms: _474  and  _475
REMARK  190  A    between atoms: _475  and  _476
REMARK  191  A    between atoms: _479  and  _481
REMARK  192  A    between atoms: _481  and  _482
REMARK  193  A    between atoms: _481  and  _484
REMARK  194  A    between atoms: _484  and  _485
REMARK  195  A    between atoms: _488  and  _490
REMARK  196  A    between atoms: _490  and  _491
REMARK  197  A    between atoms: _490  and  _493
REMARK  198  A    between atoms: _493  and  _494
REMARK  199  A    between atoms: _494  and  _495
REMARK  200  A    between atoms: _495  and  _496
REMARK  201  A    between atoms: _505  and  _507
REMARK  202  A    between atoms: _507  and  _508
REMARK  203  A    between atoms: _507  and  _510
REMARK  204  A    between atoms: _510  and  _511
REMARK  205  A    between atoms: _514  and  _516
REMARK  206  A    between atoms: _516  and  _517
REMARK  207  A    between atoms: _520  and  _522
REMARK  208  A    between atoms: _522  and  _523
REMARK  209  A    between atoms: _522  and  _525
REMARK  210  A    between atoms: _528  and  _530
REMARK  211  A    between atoms: _530  and  _531
REMARK  212  A    between atoms: _530  and  _533
REMARK  213  A    between atoms: _533  and  _534
REMARK  214  A    between atoms: _537  and  _539
REMARK  215  A    between atoms: _539  and  _540
REMARK  216  A    between atoms: _539  and  _542
REMARK  217  A    between atoms: _542  and  _543
REMARK  218  A    between atoms: _548  and  _549
REMARK                            x       y       z     vdW  Elec       q    Type
REMARK                         _______ _______ _______ _____ _____    ______ ____
ROOT
ATOM      1  C   TYR A   1     -18.308  -2.668 -10.957  0.00  0.00    +0.239 C 
ATOM      2  O   TYR A   1     -18.451  -2.190  -9.805  0.00  0.00    -0.274 OA
ATOM      3  N   ILE A   2     -17.270  -3.423 -11.302  0.00  0.00    -0.297 N 
ATOM      4  H   ILE A   2     -17.196  -3.754 -12.285  0.00  0.00    +0.150 HD
ENDROOT
BRANCH   1   5
ATOM      5  CA  TYR A   1     -19.334  -2.423 -12.056  0.00  0.00    +0.149 C 
BRANCH   5   6
ATOM      6  N   TYR A   1     -20.655  -2.722 -11.501  0.00  0.00    -0.238 NA
ATOM      7  H   TYR A   1     -21.073  -2.075 -10.802  0.00  0.00    +0.142 HD
ENDBRANCH   5   6
BRANCH   5   8
ATOM      8  CB  TYR A   1     -19.295  -0.960 -12.558  0.00  0.00    +0.053 C 
BRANCH   8   9
ATOM      9  CG  TYR A   1     -20.121  -0.885 -13.812  0.00  0.00    -0.020 A 
ATOM     10  CD2 TYR A   1     -21.515  -0.783 -13.765  0.00  0.00    -0.001 A 
ATOM     11  CE2 TYR A   1     -22.291  -0.841 -14.979  0.00  0.00    +0.036 A 
ATOM     12  CZ  TYR A   1     -21.624  -0.866 -16.212  0.00  0.00    +0.134 A 
ATOM     13  CE1 TYR A   1     -20.249  -0.892 -16.246  0.00  0.00    +0.036 A 
ATOM     14  CD1 TYR A   1     -19.492  -0.914 -15.065  0.00  0.00    -0.001 A 
BRANCH  12  15
ATOM     15  OH  TYR A   1     -22.362  -0.924 -17.389  0.00  0.00    -0.506 OA
ATOM     16  HH  TYR A   1     -23.328  -0.894 -17.173  0.00  0.00    +0.292 HD
ENDBRANCH  12  15
ENDBRANCH   8   9
ENDBRANCH   5   8
ENDBRANCH   1   5
BRANCH   3  17
ATOM     17  CA  ILE A   2     -16.218  -3.809 -10.340  0.00  0.00    +0.148 C 
BRANCH  17  18
ATOM     18  C   ILE A   2     -14.871  -3.708 -11.015  0.00  0.00    +0.241 C 
ATOM     19  N   THR A   3     -13.766  -3.762 -10.252  0.00  0.00    -0.296 N 
ATOM     20  H   THR A   3     -13.840  -3.925  -9.228  0.00  0.00    +0.150 HD
ATOM     21  O   ILE A   2     -14.793  -3.597 -12.252  0.00  0.00    -0.273 OA
BRANCH  19  22
ATOM     22  CA  THR A   3     -12.445  -3.586 -10.889  0.00  0.00    +0.164 C 
BRANCH  22  23
ATOM     23  C   THR A   3     -11.396  -4.332 -10.073  0.00  0.00    +0.229 C 
ATOM     24  O   THR A   3     -11.572  -4.537  -8.838  0.00  0.00    -0.286 OA
ENDBRANCH  22  23
BRANCH  22  25
ATOM     25  CB  THR A   3     -12.064  -2.106 -10.975  0.00  0.00    +0.136 C 
ATOM     26  CG2 THR A   3     -12.108  -1.427  -9.604  0.00  0.00    +0.034 C 
BRANCH  25  27
ATOM     27  OG1 THR A   3     -10.778  -1.919 -11.516  0.00  0.00    -0.382 OA
ATOM     28  HG1 THR A   3     -10.747  -2.299 -12.430  0.00  0.00    +0.210 HD
ENDBRANCH  25  27
ENDBRANCH  22  25
ENDBRANCH  19  22
ENDBRANCH  17  18
BRANCH  17  29
ATOM     29  CB  ILE A   2     -16.460  -5.252  -9.848  0.00  0.00    +0.027 C 
ATOM     30  CG2 ILE A   2     -17.833  -5.392  -9.149  0.00  0.00    +0.002 C 
BRANCH  29  31
ATOM     31  CG1 ILE A   2     -16.267  -6.294 -11.011  0.00  0.00    +0.002 C 
ATOM     32  CD1 ILE A   2     -16.624  -7.762 -10.618  0.00  0.00    +0.000 C 
ENDBRANCH  29  31
ENDBRANCH  17  29
ENDBRANCH   3  17
TORSDOF 13
REMARK  Name = ../refined-set-2016/2hw2/2hw2_pocket.pdb
REMARK  218 active torsions:
REMARK  status: ('A' for Active; 'I' for Inactive)
REMARK    1  A    between atoms: _2  and  _3
REMARK    2  A    between atoms: _8  and  _10
REMARK    3  A    between atoms: _10  and  _11
REMARK    4  A    between atoms: _10  and  _13
REMARK    5  A    between atoms: _13  and  _14
REMARK    6  A    between atoms: _20  and  _22
REMARK    7  A    between atoms: _22  and  _23
REMARK    8  A    between atoms: _25  and  _27
REMARK    9  A    between atoms: _27  and  _28
REMARK   10  A    between atoms: _27  and  _30
REMARK   11  A    between atoms: _30  and  _31
REMARK   12  A    between atoms: _33  and  _35
REMARK   13  A    between atoms: _35  and  _36
REMARK   14  A    between atoms: _35  and  _38
REMARK   15  A    between atoms: _38  and  _39
REMARK   16  A    between atoms: _44  and  _46
REMARK   17  A    between atoms: _46  and  _47
REMARK   18  A    between atoms: _46  and  _49
REMARK   19  A    between atoms: _49  and  _50
REMARK   20  A    between atoms: _56  and  _58
REMARK   21  A    between atoms: _58  and  _59
REMARK   22  A    between atoms: _58  and  _61
REMARK   23  A    between atoms: _61  and  _62
REMARK   24  A    between atoms: _62  and  _63
REMARK   25  A    between atoms: _66  and  _68
REMARK   26  A    between atoms: _68  and  _69
REMARK   27  A    between atoms: _68  and  _71
REMARK   28  A    between atoms: _71  and  _72
REMARK   29  A    between atoms: _72  and  _73
REMARK   30  A    between atoms: _75  and  _77
REMARK   31  A    between atoms: _77  and  _78
REMARK   32  A    between atoms: _77  and  _80
REMARK   33  A    between atoms: _80  and  _81
REMARK   34  A    between atoms: _86  and  _87
REMARK   35  A    between atoms: _89  and  _91
REMARK   36  A    between atoms: _91  and  _92
REMARK   37  A    between atoms: _91  and  _94
REMARK   38  A    between atoms: _94  and  _95
REMARK   39  A    between atoms: _98  and  _100
REMARK   40  A    between atoms: _100  and  _101
REMARK   41  A    between atoms: _100  and  _103
REMARK   42  A    between atoms: _103  and  _104
REMARK   43  A    between atoms: _107  and  _109
REMARK   44  A    between atoms: _109  and  _110
REMARK   45  A    between atoms: _109  and  _112
REMARK   46  A    between atoms: _112  and  _113
REMARK   47  A    between atoms: _116  and  _118
REMARK   48  A    between atoms: _118  and  _119
REMARK   49  A    between atoms: _118  and  _121
REMARK   50  A    between atoms: _121  and  _122
REMARK   51  A    between atoms: _125  and  _127
REMARK   52  A    between atoms: _127  and  _128
REMARK   53  A    between atoms: _131  and  _133
REMARK   54  A    between atoms: _133  and  _134
REMARK   55  A    between atoms: _137  and  _139
REMARK   56  A    between atoms: _139  and  _140
REMARK   57  A    between atoms: _139  and  _142
REMARK   58  A    between atoms: _145  and  _147
REMARK   59  A    between atoms: _147  and  _148
REMARK   60  A    between atoms: _147  and  _150
REMARK   61  A    between atoms: _150  and  _151
REMARK   62  A    between atoms: _161  and  _163
REMARK   63  A    between atoms: _163  and  _164
REMARK   64  A    between atoms: _166  and  _168
REMARK   65  A    between atoms: _168  and  _169
REMARK   66  A    between atoms: _172  and  _174
REMARK   67  A    between atoms: _174  and  _175
REMARK   68  A    between atoms: _174  and  _177
REMARK   69  A    between atoms: _177  and  _178
REMARK   70  A    between atoms: _178  and  _179
REMARK   71  A    between atoms: _182  and  _184
REMARK   72  A    between atoms: _184  and  _185
REMARK   73  A    between atoms: _184  and  _187
REMARK   74  A    between atoms: _187  and  _188
REMARK   75  A    between atoms: _191  and  _193
REMARK   76  A    between atoms: _193  and  _194
REMARK   77  A    between atoms: _197  and  _199
REMARK   78  A    between atoms: _199  and  _200
REMARK   79  A    between atoms: _199  and  _202
REMARK   80  A    between atoms: _202  and  _203
REMARK   81  A    between atoms: _207  and  _208
REMARK   82  A    between atoms: _213  and  _215
REMARK   83  A    between atoms: _215  and  _216
REMARK   84  A    between atoms: _215  and  _218
REMARK   85  A    between atoms: _218  and  _219
REMARK   86  A    between atoms: _224  and  _226
REMARK   87  A    between atoms: _226  and  _227
REMARK   88  A    between atoms: _226  and  _229
REMARK   89  A    between atoms: _232  and  _234
REMARK   90  A    between atoms: _234  and  _235
REMARK   91  A    between atoms: _234  and  _237
REMARK   92  A    between atoms: _237  and  _238
REMARK   93  A    between atoms: _241  and  _243
REMARK   94  A    between atoms: _243  and  _244
REMARK   95  A    between atoms: _243  and  _246
REMARK   96  A    between atoms: _246  and  _247
REMARK   97  A    between atoms: _250  and  _252
REMARK   98  A    between atoms: _252  and  _253
REMARK   99  A    between atoms: _252  and  _255
REMARK  100  A    between atoms: _255  and  _256
REMARK  101  A    between atoms: _256  and  _257
REMARK  102  A    between atoms: _257  and  _258
REMARK  103  A    between atoms: _258  and  _259
REMARK  104  A    between atoms: _263  and  _265
REMARK  105  A    between atoms: _265  and  _266
REMARK  106  A    between atoms: _265  and  _268
REMARK  107  A    between atoms: _268  and  _269
REMARK  108  A    between atoms: _269  and  _270
REMARK  109  A    between atoms: _270  and  _271
REMARK  110  A    between atoms: _271  and  _272
REMARK  111  A    between atoms: _276  and  _278
REMARK  112  A    between atoms: _278  and  _279
REMARK  113  A    between atoms: _278  and  _281
REMARK  114  A    between atoms: _281  and  _282
REMARK  115  A    between atoms: _286  and  _287
REMARK  116  A    between atoms: _292  and  _294
REMARK  117  A    between atoms: _294  and  _295
REMARK  118  A    between atoms: _297  and  _299
REMARK  119  A    between atoms: _299  and  _300
REMARK  120  A    between atoms: _299  and  _302
REMARK  121  A    between atoms: _302  and  _303
REMARK  122  A    between atoms: _309  and  _310
REMARK  123  A    between atoms: _315  and  _317
REMARK  124  A    between atoms: _317  and  _318
REMARK  125  A    between atoms: _317  and  _320
REMARK  126  A    between atoms: _320  and  _321
REMARK  127  A    between atoms: _324  and  _326
REMARK  128  A    between atoms: _326  and  _327
REMARK  129  A    between atoms: _326  and  _329
REMARK  130  A    between atoms: _329  and  _330
REMARK  131  A    between atoms: _330  and  _331
REMARK  132  A    between atoms: _331  and  _332
REMARK  133  A    between atoms: _341  and  _343
REMARK  134  A    between atoms: _343  and  _344
REMARK  135  A    between atoms: _343  and  _346
REMARK  136  A    between atoms: _346  and  _347
REMARK  137  A    between atoms: _349  and  _351
REMARK  138  A    between atoms: _351  and  _352
REMARK  139  A    between atoms: _351  and  _354
REMARK  140  A    between atoms: _354  and  _355
REMARK  141  A    between atoms: _360  and  _361
REMARK  142  A    between atoms: _363  and  _365
REMARK  143  A    between atoms: _365  and  _366
REMARK  144  A    between atoms: _365  and  _368
REMARK  145  A    between atoms: _368  and  _369
REMARK  146  A    between atoms: _374  and  _376
REMARK  147  A    between atoms: _376  and  _377
REMARK  148  A    between atoms: _376  and  _379
REMARK  149  A    between atoms: _379  and  _380
REMARK  150  A    between atoms: _380  and  _381
REMARK  151  A    between atoms: _386  and  _388
REMARK  152  A    between atoms: _388  and  _389
REMARK  153  A    between atoms: _388  and  _391
REMARK  154  A    between atoms: _391  and  _392
REMARK  155  A    between atoms: _395  and  _397
REMARK  156  A    between atoms: _397  and  _398
REMARK  157  A    between atoms: _401  and  _403
REMARK  158  A    between atoms: _403  and  _404
REMARK  159  A    between atoms: _407  and  _409
REMARK  160  A    between atoms: _409  and  _410
REMARK  161  A    between atoms: _409  and  _412
REMARK  162  A    between atoms: _412  and  _413
REMARK  163  A    between atoms: _413  and  _414
REMARK  164  A    between atoms: _416  and  _418
REMARK  165  A    between atoms: _418  and  _419
REMARK  166  A    between atoms: _418  and  _421
REMARK  167  A    between atoms: _421  and  _422
REMARK  168  A    between atoms: _422  and  _423
REMARK  169  A    between atoms: _423  and  _424
REMARK  170  A    between atoms: _433  and  _435
REMARK  171  A    between atoms: _435  and  _436
REMARK  172  A    between atoms: _435  and  _438
REMARK  173  A    between atoms: _438  and  _439
REMARK  174  A    between atoms: _439  and  _440
REMARK  175  A    between atoms: _445  and  _447
REMARK  176  A    between atoms: _447  and  _448
REMARK  177  A    between atoms: _450  and  _452
REMARK  178  A    between atoms: _452  and  _453
REMARK  179  A    between atoms: _452  and  _455
REMARK  180  A    between atoms: _455  and  _456
REMARK  181  A    between atoms: _459  and  _461
REMARK  182  A    between atoms: _461  and  _462
REMARK  183  A    between atoms: _461  and  _464
REMARK  184  A    between atoms: _464  and  _465
REMARK  185  A    between atoms: _465  and  _466
REMARK  186  A    between atoms: _469  and  _471
REMARK  187  A    between atoms: _471  and  _472
REMARK  188  A    between atoms: _471  and  _474
REMARK  189  A    between atoms: _474  and  _475
REMARK  190  A    between atoms: _475  and  _476
REMARK  191  A    between atoms: _479  and  _481
REMARK  192  A    between atoms: _481  and  _482
REMARK  193  A    between atoms: _481  and  _484
REMARK  194  A    between atoms: _484  and  _485
REMARK  195  A    between atoms: _488  and  _490
REMARK  196  A    between atoms: _490  and  _491
REMARK  197  A    between atoms: _490  and  _493
REMARK  198  A    between atoms: _493  and  _494
REMARK  199  A    between atoms: _494  and  _495
REMARK  200  A    between atoms: _495  and  _496
REMARK  201  A    between atoms: _505  and  _507
REMARK  202  A    between atoms: _507  and  _508
REMARK  203  A    between atoms: _507  and  _510
REMARK  204  A    between atoms: _510  and  _511
REMARK  205  A    between atoms: _514  and  _516
REMARK  206  A    between atoms: _516  and  _517
REMARK  207  A    between atoms: _520  and  _522
REMARK  208  A    between atoms: _522  and  _523
REMARK  209  A    between atoms: _522  and  _525
REMARK  210  A    between atoms: _528  and  _530
REMARK  211  A    between atoms: _530  and  _531
REMARK  212  A    between atoms: _530  and  _533
REMARK  213  A    between atoms: _533  and  _534
REMARK  214  A    between atoms: _537  and  _539
REMARK  215  A    between atoms: _539  and  _540
REMARK  216  A    between atoms: _539  and  _542
REMARK  217  A    between atoms: _542  and  _543
REMARK  218  A    between atoms: _548  and  _549
REMARK                            x       y       z     vdW  Elec       q    Type
REMARK                         _______ _______ _______ _____ _____    ______ ____
ROOT
ATOM      1  CA  THR A   1      -7.209  -1.899  -9.816  0.00  0.00    +0.160 C 
ENDROOT
BRANCH   1   2
ATOM      2  N   THR A   1      -8.208  -2.926 -10.186  0.00  0.00    -0.237 NA
ATOM      3  H   THR A   1      -9.054  -2.668 -10.733  0.00  0.00    +0.142 HD
ENDBRANCH   1   2
BRANCH   1   4
ATOM      4  C   THR A   1      -7.734  -0.976  -8.763  0.00  0.00    +0.227 C 
ATOM      5  O   THR A   1      -8.863  -0.481  -8.821  0.00  0.00    -0.287 OA
ENDBRANCH   1   4
BRANCH   1   6
ATOM      6  CB  THR A   1      -6.701  -1.110 -11.020  0.00  0.00    +0.134 C 
ATOM      7  CG2 THR A   1      -6.080  -2.051 -12.053  0.00  0.00    +0.034 C 
BRANCH   6   8
ATOM      8  OG1 THR A   1      -7.751  -0.332 -11.635  0.00  0.00    -0.383 OA
ATOM      9  HG1 THR A   1      -7.383   0.163 -12.409  0.00  0.00    +0.210 HD
ENDBRANCH   6   8
ENDBRANCH   1   6
TORSDOF 4
REMARK  Name = ../refined-set-2016/2hw2/2hw2_pocket.pdb
REMARK  218 active torsions:
REMARK  status: ('A' for Active; 'I' for Inactive)
REMARK    1  A    between atoms: _2  and  _3
REMARK    2  A    between atoms: _8  and  _10
REMARK    3  A    between atoms: _10  and  _11
REMARK    4  A    between atoms: _10  and  _13
REMARK    5  A    between atoms: _13  and  _14
REMARK    6  A    between atoms: _20  and  _22
REMARK    7  A    between atoms: _22  and  _23
REMARK    8  A    between atoms: _25  and  _27
REMARK    9  A    between atoms: _27  and  _28
REMARK   10  A    between atoms: _27  and  _30
REMARK   11  A    between atoms: _30  and  _31
REMARK   12  A    between atoms: _33  and  _35
REMARK   13  A    between atoms: _35  and  _36
REMARK   14  A    between atoms: _35  and  _38
REMARK   15  A    between atoms: _38  and  _39
REMARK   16  A    between atoms: _44  and  _46
REMARK   17  A    between atoms: _46  and  _47
REMARK   18  A    between atoms: _46  and  _49
REMARK   19  A    between atoms: _49  and  _50
REMARK   20  A    between atoms: _56  and  _58
REMARK   21  A    between atoms: _58  and  _59
REMARK   22  A    between atoms: _58  and  _61
REMARK   23  A    between atoms: _61  and  _62
REMARK   24  A    between atoms: _62  and  _63
REMARK   25  A    between atoms: _66  and  _68
REMARK   26  A    between atoms: _68  and  _69
REMARK   27  A    between atoms: _68  and  _71
REMARK   28  A    between atoms: _71  and  _72
REMARK   29  A    between atoms: _72  and  _73
REMARK   30  A    between atoms: _75  and  _77
REMARK   31  A    between atoms: _77  and  _78
REMARK   32  A    between atoms: _77  and  _80
REMARK   33  A    between atoms: _80  and  _81
REMARK   34  A    between atoms: _86  and  _87
REMARK   35  A    between atoms: _89  and  _91
REMARK   36  A    between atoms: _91  and  _92
REMARK   37  A    between atoms: _91  and  _94
REMARK   38  A    between atoms: _94  and  _95
REMARK   39  A    between atoms: _98  and  _100
REMARK   40  A    between atoms: _100  and  _101
REMARK   41  A    between atoms: _100  and  _103
REMARK   42  A    between atoms: _103  and  _104
REMARK   43  A    between atoms: _107  and  _109
REMARK   44  A    between atoms: _109  and  _110
REMARK   45  A    between atoms: _109  and  _112
REMARK   46  A    between atoms: _112  and  _113
REMARK   47  A    between atoms: _116  and  _118
REMARK   48  A    between atoms: _118  and  _119
REMARK   49  A    between atoms: _118  and  _121
REMARK   50  A    between atoms: _121  and  _122
REMARK   51  A    between atoms: _125  and  _127
REMARK   52  A    between atoms: _127  and  _128
REMARK   53  A    between atoms: _131  and  _133
REMARK   54  A    between atoms: _133  and  _134
REMARK   55  A    between atoms: _137  and  _139
REMARK   56  A    between atoms: _139  and  _140
REMARK   57  A    between atoms: _139  and  _142
REMARK   58  A    between atoms: _145  and  _147
REMARK   59  A    between atoms: _147  and  _148
REMARK   60  A    between atoms: _147  and  _150
REMARK   61  A    between atoms: _150  and  _151
REMARK   62  A    between atoms: _161  and  _163
REMARK   63  A    between atoms: _163  and  _164
REMARK   64  A    between atoms: _166  and  _168
REMARK   65  A    between atoms: _168  and  _169
REMARK   66  A    between atoms: _172  and  _174
REMARK   67  A    between atoms: _174  and  _175
REMARK   68  A    between atoms: _174  and  _177
REMARK   69  A    between atoms: _177  and  _178
REMARK   70  A    between atoms: _178  and  _179
REMARK   71  A    between atoms: _182  and  _184
REMARK   72  A    between atoms: _184  and  _185
REMARK   73  A    between atoms: _184  and  _187
REMARK   74  A    between atoms: _187  and  _188
REMARK   75  A    between atoms: _191  and  _193
REMARK   76  A    between atoms: _193  and  _194
REMARK   77  A    between atoms: _197  and  _199
REMARK   78  A    between atoms: _199  and  _200
REMARK   79  A    between atoms: _199  and  _202
REMARK   80  A    between atoms: _202  and  _203
REMARK   81  A    between atoms: _207  and  _208
REMARK   82  A    between atoms: _213  and  _215
REMARK   83  A    between atoms: _215  and  _216
REMARK   84  A    between atoms: _215  and  _218
REMARK   85  A    between atoms: _218  and  _219
REMARK   86  A    between atoms: _224  and  _226
REMARK   87  A    between atoms: _226  and  _227
REMARK   88  A    between atoms: _226  and  _229
REMARK   89  A    between atoms: _232  and  _234
REMARK   90  A    between atoms: _234  and  _235
REMARK   91  A    between atoms: _234  and  _237
REMARK   92  A    between atoms: _237  and  _238
REMARK   93  A    between atoms: _241  and  _243
REMARK   94  A    between atoms: _243  and  _244
REMARK   95  A    between atoms: _243  and  _246
REMARK   96  A    between atoms: _246  and  _247
REMARK   97  A    between atoms: _250  and  _252
REMARK   98  A    between atoms: _252  and  _253
REMARK   99  A    between atoms: _252  and  _255
REMARK  100  A    between atoms: _255  and  _256
REMARK  101  A    between atoms: _256  and  _257
REMARK  102  A    between atoms: _257  and  _258
REMARK  103  A    between atoms: _258  and  _259
REMARK  104  A    between atoms: _263  and  _265
REMARK  105  A    between atoms: _265  and  _266
REMARK  106  A    between atoms: _265  and  _268
REMARK  107  A    between atoms: _268  and  _269
REMARK  108  A    between atoms: _269  and  _270
REMARK  109  A    between atoms: _270  and  _271
REMARK  110  A    between atoms: _271  and  _272
REMARK  111  A    between atoms: _276  and  _278
REMARK  112  A    between atoms: _278  and  _279
REMARK  113  A    between atoms: _278  and  _281
REMARK  114  A    between atoms: _281  and  _282
REMARK  115  A    between atoms: _286  and  _287
REMARK  116  A    between atoms: _292  and  _294
REMARK  117  A    between atoms: _294  and  _295
REMARK  118  A    between atoms: _297  and  _299
REMARK  119  A    between atoms: _299  and  _300
REMARK  120  A    between atoms: _299  and  _302
REMARK  121  A    between atoms: _302  and  _303
REMARK  122  A    between atoms: _309  and  _310
REMARK  123  A    between atoms: _315  and  _317
REMARK  124  A    between atoms: _317  and  _318
REMARK  125  A    between atoms: _317  and  _320
REMARK  126  A    between atoms: _320  and  _321
REMARK  127  A    between atoms: _324  and  _326
REMARK  128  A    between atoms: _326  and  _327
REMARK  129  A    between atoms: _326  and  _329
REMARK  130  A    between atoms: _329  and  _330
REMARK  131  A    between atoms: _330  and  _331
REMARK  132  A    between atoms: _331  and  _332
REMARK  133  A    between atoms: _341  and  _343
REMARK  134  A    between atoms: _343  and  _344
REMARK  135  A    between atoms: _343  and  _346
REMARK  136  A    between atoms: _346  and  _347
REMARK  137  A    between atoms: _349  and  _351
REMARK  138  A    between atoms: _351  and  _352
REMARK  139  A    between atoms: _351  and  _354
REMARK  140  A    between atoms: _354  and  _355
REMARK  141  A    between atoms: _360  and  _361
REMARK  142  A    between atoms: _363  and  _365
REMARK  143  A    between atoms: _365  and  _366
REMARK  144  A    between atoms: _365  and  _368
REMARK  145  A    between atoms: _368  and  _369
REMARK  146  A    between atoms: _374  and  _376
REMARK  147  A    between atoms: _376  and  _377
REMARK  148  A    between atoms: _376  and  _379
REMARK  149  A    between atoms: _379  and  _380
REMARK  150  A    between atoms: _380  and  _381
REMARK  151  A    between atoms: _386  and  _388
REMARK  152  A    between atoms: _388  and  _389
REMARK  153  A    between atoms: _388  and  _391
REMARK  154  A    between atoms: _391  and  _392
REMARK  155  A    between atoms: _395  and  _397
REMARK  156  A    between atoms: _397  and  _398
REMARK  157  A    between atoms: _401  and  _403
REMARK  158  A    between atoms: _403  and  _404
REMARK  159  A    between atoms: _407  and  _409
REMARK  160  A    between atoms: _409  and  _410
REMARK  161  A    between atoms: _409  and  _412
REMARK  162  A    between atoms: _412  and  _413
REMARK  163  A    between atoms: _413  and  _414
REMARK  164  A    between atoms: _416  and  _418
REMARK  165  A    between atoms: _418  and  _419
REMARK  166  A    between atoms: _418  and  _421
REMARK  167  A    between atoms: _421  and  _422
REMARK  168  A    between atoms: _422  and  _423
REMARK  169  A    between atoms: _423  and  _424
REMARK  170  A    between atoms: _433  and  _435
REMARK  171  A    between atoms: _435  and  _436
REMARK  172  A    between atoms: _435  and  _438
REMARK  173  A    between atoms: _438  and  _439
REMARK  174  A    between atoms: _439  and  _440
REMARK  175  A    between atoms: _445  and  _447
REMARK  176  A    between atoms: _447  and  _448
REMARK  177  A    between atoms: _450  and  _452
REMARK  178  A    between atoms: _452  and  _453
REMARK  179  A    between atoms: _452  and  _455
REMARK  180  A    between atoms: _455  and  _456
REMARK  181  A    between atoms: _459  and  _461
REMARK  182  A    between atoms: _461  and  _462
REMARK  183  A    between atoms: _461  and  _464
REMARK  184  A    between atoms: _464  and  _465
REMARK  185  A    between atoms: _465  and  _466
REMARK  186  A    between atoms: _469  and  _471
REMARK  187  A    between atoms: _471  and  _472
REMARK  188  A    between atoms: _471  and  _474
REMARK  189  A    between atoms: _474  and  _475
REMARK  190  A    between atoms: _475  and  _476
REMARK  191  A    between atoms: _479  and  _481
REMARK  192  A    between atoms: _481  and  _482
REMARK  193  A    between atoms: _481  and  _484
REMARK  194  A    between atoms: _484  and  _485
REMARK  195  A    between atoms: _488  and  _490
REMARK  196  A    between atoms: _490  and  _491
REMARK  197  A    between atoms: _490  and  _493
REMARK  198  A    between atoms: _493  and  _494
REMARK  199  A    between atoms: _494  and  _495
REMARK  200  A    between atoms: _495  and  _496
REMARK  201  A    between atoms: _505  and  _507
REMARK  202  A    between atoms: _507  and  _508
REMARK  203  A    between atoms: _507  and  _510
REMARK  204  A    between atoms: _510  and  _511
REMARK  205  A    between atoms: _514  and  _516
REMARK  206  A    between atoms: _516  and  _517
REMARK  207  A    between atoms: _520  and  _522
REMARK  208  A    between atoms: _522  and  _523
REMARK  209  A    between atoms: _522  and  _525
REMARK  210  A    between atoms: _528  and  _530
REMARK  211  A    between atoms: _530  and  _531
REMARK  212  A    between atoms: _530  and  _533
REMARK  213  A    between atoms: _533  and  _534
REMARK  214  A    between atoms: _537  and  _539
REMARK  215  A    between atoms: _539  and  _540
REMARK  216  A    between atoms: _539  and  _542
REMARK  217  A    between atoms: _542  and  _543
REMARK  218  A    between atoms: _548  and  _549
REMARK                            x       y       z     vdW  Elec       q    Type
REMARK                         _______ _______ _______ _____ _____    ______ ____
ROOT
ATOM      1  CA  TRP A   5     -12.423   6.836  -8.956  0.00  0.00    +0.153 C 
ENDROOT
BRANCH   1   4
ATOM      2  C   VAL A   4     -11.776   6.004  -6.796  0.00  0.00    +0.241 C 
ATOM      3  O   VAL A   4     -12.627   6.733  -6.263  0.00  0.00    -0.273 OA
ATOM      4  N   TRP A   5     -11.556   5.999  -8.127  0.00  0.00    -0.297 N 
ATOM      5  H   TRP A   5     -10.799   5.422  -8.547  0.00  0.00    +0.150 HD
BRANCH   2   6
ATOM      6  CA  VAL A   4     -10.994   5.029  -5.916  0.00  0.00    +0.149 C 
BRANCH   6   9
ATOM      7  C   ALA A   3     -12.127   3.035  -6.733  0.00  0.00    +0.241 C 
ATOM      8  O   ALA A   3     -13.222   3.401  -6.303  0.00  0.00    -0.273 OA
ATOM      9  N   VAL A   4     -10.963   3.721  -6.539  0.00  0.00    -0.297 N 
ATOM     10  H   VAL A   4     -10.057   3.306  -6.837  0.00  0.00    +0.150 HD
BRANCH   7  11
ATOM     11  CA  ALA A   3     -12.041   1.699  -7.430  0.00  0.00    +0.149 C 
ATOM     12  CB  ALA A   3     -11.582   0.603  -6.470  0.00  0.00    +0.031 C 
BRANCH  11  14
ATOM     13  C   ALA A   2     -11.323   2.511  -9.634  0.00  0.00    +0.241 C 
ATOM     14  N   ALA A   3     -11.067   1.761  -8.549  0.00  0.00    -0.297 N 
ATOM     15  H   ALA A   3     -10.180   1.220  -8.493  0.00  0.00    +0.150 HD
ATOM     16  O   ALA A   2     -12.374   3.173  -9.730  0.00  0.00    -0.273 OA
BRANCH  13  17
ATOM     17  CA  ALA A   2     -10.297   2.562 -10.762  0.00  0.00    +0.149 C 
ATOM     18  CB  ALA A   2     -10.537   1.441 -11.728  0.00  0.00    +0.031 C 
BRANCH  17  21
ATOM     19  C   ASP A   1      -8.479   3.501  -9.451  0.00  0.00    +0.239 C 
ATOM     20  O   ASP A   1      -9.148   4.517  -9.263  0.00  0.00    -0.274 OA
ATOM     21  N   ALA A   2      -8.938   2.493 -10.197  0.00  0.00    -0.297 N 
ATOM     22  H   ALA A   2      -8.339   1.663 -10.378  0.00  0.00    +0.150 HD
BRANCH  19  23
ATOM     23  CA  ASP A   1      -7.025   3.411  -8.906  0.00  0.00    +0.156 C 
BRANCH  23  24
ATOM     24  N   ASP A   1      -6.807   2.091  -8.338  0.00  0.00    -0.238 NA
ATOM     25  H   ASP A   1      -6.029   1.496  -8.688  0.00  0.00    +0.142 HD
ENDBRANCH  23  24
BRANCH  23  26
ATOM     26  CB  ASP A   1      -6.056   3.674 -10.017  0.00  0.00    +0.140 C 
BRANCH  26  27
ATOM     27  CG  ASP A   1      -6.074   5.143 -10.463  0.00  0.00    +0.367 C 
ATOM     28  OD2 ASP A   1      -5.799   6.003  -9.608  0.00  0.00    -0.246 OA
ATOM     29  OD1 ASP A   1      -6.351   5.413 -11.633  0.00  0.00    -0.246 OA
ENDBRANCH  26  27
ENDBRANCH  23  26
ENDBRANCH  19  23
ENDBRANCH  17  21
ENDBRANCH  13  17
ENDBRANCH  11  14
ENDBRANCH   7  11
ENDBRANCH   6   9
BRANCH   6  30
ATOM     30  CB  VAL A   4      -9.541   5.517  -5.685  0.00  0.00    +0.027 C 
ATOM     31  CG2 VAL A   4      -8.838   4.622  -4.627  0.00  0.00    +0.002 C 
ATOM     32  CG1 VAL A   4      -9.516   6.991  -5.175  0.00  0.00    +0.002 C 
ENDBRANCH   6  30
ENDBRANCH   2   6
ENDBRANCH   1   4
BRANCH   1  33
ATOM     33  C   TRP A   5     -13.857   6.454  -8.790  0.00  0.00    +0.241 C 
ATOM     34  N   GLY A   6     -14.177   5.145  -8.650  0.00  0.00    -0.295 N 
ATOM     35  H   GLY A   6     -13.442   4.409  -8.656  0.00  0.00    +0.150 HD
ATOM     36  O   TRP A   5     -14.748   7.350  -8.839  0.00  0.00    -0.273 OA
BRANCH  34  37
ATOM     37  CA  GLY A   6     -15.619   4.792  -8.487  0.00  0.00    +0.176 C 
BRANCH  37  38
ATOM     38  C   GLY A   6     -16.196   5.395  -7.222  0.00  0.00    +0.243 C 
ATOM     39  N   ALA A   7     -15.442   5.342  -6.110  0.00  0.00    -0.297 N 
ATOM     40  H   ALA A   7     -14.506   4.891  -6.156  0.00  0.00    +0.150 HD
ATOM     41  O   GLY A   6     -17.334   5.903  -7.224  0.00  0.00    -0.273 OA
BRANCH  39  42
ATOM     42  CA  ALA A   7     -15.902   5.904  -4.827  0.00  0.00    +0.149 C 
ATOM     43  CB  ALA A   7     -14.859   5.541  -3.726  0.00  0.00    +0.031 C 
BRANCH  42  44
ATOM     44  C   ALA A   7     -16.044   7.416  -4.952  0.00  0.00    +0.241 C 
ATOM     45  O   ALA A   7     -17.007   7.985  -4.393  0.00  0.00    -0.273 OA
ATOM     46  N   GLU A   8     -15.080   8.083  -5.583  0.00  0.00    -0.297 N 
ATOM     47  H   GLU A   8     -14.300   7.567  -6.038  0.00  0.00    +0.150 HD
BRANCH  46  48
ATOM     48  CA  GLU A   8     -15.121   9.547  -5.635  0.00  0.00    +0.149 C 
BRANCH  48  49
ATOM     49  C   GLU A   8     -16.223  10.070  -6.570  0.00  0.00    +0.241 C 
ATOM     50  O   GLU A   8     -16.817  11.130  -6.297  0.00  0.00    -0.273 OA
ATOM     51  N   LEU A   9     -16.402   9.383  -7.706  0.00  0.00    -0.297 N 
ATOM     52  H   LEU A   9     -15.890   8.493  -7.869  0.00  0.00    +0.150 HD
BRANCH  51  53
ATOM     53  CA  LEU A   9     -17.326   9.900  -8.713  0.00  0.00    +0.149 C 
BRANCH  53  54
ATOM     54  C   LEU A   9     -18.762   9.406  -8.475  0.00  0.00    +0.241 C 
ATOM     55  N   ALA A  10     -18.977   8.473  -7.564  0.00  0.00    -0.298 N 
ATOM     56  H   ALA A  10     -18.170   8.073  -7.044  0.00  0.00    +0.150 HD
ATOM     57  O   LEU A   9     -19.690   9.875  -9.153  0.00  0.00    -0.273 OA
BRANCH  55  58
ATOM     58  CA  ALA A  10     -20.327   7.992  -7.273  0.00  0.00    +0.137 C 
ATOM     59  CB  ALA A  10     -20.291   6.901  -6.173  0.00  0.00    +0.030 C 
BRANCH  58  60
ATOM     60  C   ALA A  10     -21.184   9.133  -6.825  0.00  0.00    +0.227 C 
ATOM     61  O   ALA A  10     -20.753  10.068  -6.152  0.00  0.00    -0.286 OA
ENDBRANCH  58  60
ENDBRANCH  55  58
ENDBRANCH  53  54
BRANCH  53  62
ATOM     62  CB  LEU A   9     -16.830   9.519 -10.123  0.00  0.00    +0.029 C 
BRANCH  62  63
ATOM     63  CG  LEU A   9     -15.492  10.133 -10.523  0.00  0.00    +0.002 C 
ATOM     64  CD2 LEU A   9     -15.495  11.672 -10.602  0.00  0.00    +0.000 C 
ATOM     65  CD1 LEU A   9     -15.085   9.528 -11.859  0.00  0.00    +0.000 C 
ENDBRANCH  62  63
ENDBRANCH  53  62
ENDBRANCH  51  53
ENDBRANCH  48  49
BRANCH  48  66
ATOM     66  CB  GLU A   8     -13.783  10.021  -6.150  0.00  0.00    +0.041 C 
BRANCH  66  67
ATOM     67  CG  GLU A   8     -12.659   9.831  -5.104  0.00  0.00    +0.116 C 
BRANCH  67  68
ATOM     68  CD  GLU A   8     -11.281  10.139  -5.665  0.00  0.00    +0.365 C 
ATOM     69  OE2 GLU A   8     -10.404  10.481  -4.869  0.00  0.00    -0.246 OA
ATOM     70  OE1 GLU A   8     -11.026   9.910  -6.883  0.00  0.00    -0.246 OA
ENDBRANCH  67  68
ENDBRANCH  66  67
ENDBRANCH  48  66
ENDBRANCH  46  48
ENDBRANCH  42  44
ENDBRANCH  39  42
ENDBRANCH  37  38
ENDBRANCH  34  37
ENDBRANCH   1  33
BRANCH   1  71
ATOM     71  CB  TRP A   5     -12.070   6.702 -10.407  0.00  0.00    +0.057 C 
BRANCH  71  72
ATOM     72  CG  TRP A   5     -10.786   7.439 -10.807  0.00  0.00    -0.002 A 
ATOM     73  CD2 TRP A   5     -10.600   8.882 -10.773  0.00  0.00    +0.013 A 
ATOM     74  CE3 TRP A   5     -11.429   9.963 -10.378  0.00  0.00    +0.001 A 
ATOM     75  CZ3 TRP A   5     -10.906  11.223 -10.422  0.00  0.00    +0.000 A 
ATOM     76  CH2 TRP A   5      -9.622  11.478 -10.906  0.00  0.00    +0.001 A 
ATOM     77  CZ2 TRP A   5      -8.801  10.459 -11.307  0.00  0.00    +0.017 A 
ATOM     78  CE2 TRP A   5      -9.291   9.155 -11.234  0.00  0.00    +0.056 A 
ATOM     79  NE1 TRP A   5      -8.677   7.953 -11.520  0.00  0.00    -0.352 N 
ATOM     80  HE1 TRP A   5      -7.704   7.838 -11.869  0.00  0.00    +0.166 HD
ATOM     81  CD1 TRP A   5      -9.578   6.913 -11.263  0.00  0.00    +0.068 A 
ENDBRANCH  71  72
ENDBRANCH   1  71
TORSDOF 30
REMARK  Name = ../refined-set-2016/2hw2/2hw2_pocket.pdb
REMARK  218 active torsions:
REMARK  status: ('A' for Active; 'I' for Inactive)
REMARK    1  A    between atoms: _2  and  _3
REMARK    2  A    between atoms: _8  and  _10
REMARK    3  A    between atoms: _10  and  _11
REMARK    4  A    between atoms: _10  and  _13
REMARK    5  A    between atoms: _13  and  _14
REMARK    6  A    between atoms: _20  and  _22
REMARK    7  A    between atoms: _22  and  _23
REMARK    8  A    between atoms: _25  and  _27
REMARK    9  A    between atoms: _27  and  _28
REMARK   10  A    between atoms: _27  and  _30
REMARK   11  A    between atoms: _30  and  _31
REMARK   12  A    between atoms: _33  and  _35
REMARK   13  A    between atoms: _35  and  _36
REMARK   14  A    between atoms: _35  and  _38
REMARK   15  A    between atoms: _38  and  _39
REMARK   16  A    between atoms: _44  and  _46
REMARK   17  A    between atoms: _46  and  _47
REMARK   18  A    between atoms: _46  and  _49
REMARK   19  A    between atoms: _49  and  _50
REMARK   20  A    between atoms: _56  and  _58
REMARK   21  A    between atoms: _58  and  _59
REMARK   22  A    between atoms: _58  and  _61
REMARK   23  A    between atoms: _61  and  _62
REMARK   24  A    between atoms: _62  and  _63
REMARK   25  A    between atoms: _66  and  _68
REMARK   26  A    between atoms: _68  and  _69
REMARK   27  A    between atoms: _68  and  _71
REMARK   28  A    between atoms: _71  and  _72
REMARK   29  A    between atoms: _72  and  _73
REMARK   30  A    between atoms: _75  and  _77
REMARK   31  A    between atoms: _77  and  _78
REMARK   32  A    between atoms: _77  and  _80
REMARK   33  A    between atoms: _80  and  _81
REMARK   34  A    between atoms: _86  and  _87
REMARK   35  A    between atoms: _89  and  _91
REMARK   36  A    between atoms: _91  and  _92
REMARK   37  A    between atoms: _91  and  _94
REMARK   38  A    between atoms: _94  and  _95
REMARK   39  A    between atoms: _98  and  _100
REMARK   40  A    between atoms: _100  and  _101
REMARK   41  A    between atoms: _100  and  _103
REMARK   42  A    between atoms: _103  and  _104
REMARK   43  A    between atoms: _107  and  _109
REMARK   44  A    between atoms: _109  and  _110
REMARK   45  A    between atoms: _109  and  _112
REMARK   46  A    between atoms: _112  and  _113
REMARK   47  A    between atoms: _116  and  _118
REMARK   48  A    between atoms: _118  and  _119
REMARK   49  A    between atoms: _118  and  _121
REMARK   50  A    between atoms: _121  and  _122
REMARK   51  A    between atoms: _125  and  _127
REMARK   52  A    between atoms: _127  and  _128
REMARK   53  A    between atoms: _131  and  _133
REMARK   54  A    between atoms: _133  and  _134
REMARK   55  A    between atoms: _137  and  _139
REMARK   56  A    between atoms: _139  and  _140
REMARK   57  A    between atoms: _139  and  _142
REMARK   58  A    between atoms: _145  and  _147
REMARK   59  A    between atoms: _147  and  _148
REMARK   60  A    between atoms: _147  and  _150
REMARK   61  A    between atoms: _150  and  _151
REMARK   62  A    between atoms: _161  and  _163
REMARK   63  A    between atoms: _163  and  _164
REMARK   64  A    between atoms: _166  and  _168
REMARK   65  A    between atoms: _168  and  _169
REMARK   66  A    between atoms: _172  and  _174
REMARK   67  A    between atoms: _174  and  _175
REMARK   68  A    between atoms: _174  and  _177
REMARK   69  A    between atoms: _177  and  _178
REMARK   70  A    between atoms: _178  and  _179
REMARK   71  A    between atoms: _182  and  _184
REMARK   72  A    between atoms: _184  and  _185
REMARK   73  A    between atoms: _184  and  _187
REMARK   74  A    between atoms: _187  and  _188
REMARK   75  A    between atoms: _191  and  _193
REMARK   76  A    between atoms: _193  and  _194
REMARK   77  A    between atoms: _197  and  _199
REMARK   78  A    between atoms: _199  and  _200
REMARK   79  A    between atoms: _199  and  _202
REMARK   80  A    between atoms: _202  and  _203
REMARK   81  A    between atoms: _207  and  _208
REMARK   82  A    between atoms: _213  and  _215
REMARK   83  A    between atoms: _215  and  _216
REMARK   84  A    between atoms: _215  and  _218
REMARK   85  A    between atoms: _218  and  _219
REMARK   86  A    between atoms: _224  and  _226
REMARK   87  A    between atoms: _226  and  _227
REMARK   88  A    between atoms: _226  and  _229
REMARK   89  A    between atoms: _232  and  _234
REMARK   90  A    between atoms: _234  and  _235
REMARK   91  A    between atoms: _234  and  _237
REMARK   92  A    between atoms: _237  and  _238
REMARK   93  A    between atoms: _241  and  _243
REMARK   94  A    between atoms: _243  and  _244
REMARK   95  A    between atoms: _243  and  _246
REMARK   96  A    between atoms: _246  and  _247
REMARK   97  A    between atoms: _250  and  _252
REMARK   98  A    between atoms: _252  and  _253
REMARK   99  A    between atoms: _252  and  _255
REMARK  100  A    between atoms: _255  and  _256
REMARK  101  A    between atoms: _256  and  _257
REMARK  102  A    between atoms: _257  and  _258
REMARK  103  A    between atoms: _258  and  _259
REMARK  104  A    between atoms: _263  and  _265
REMARK  105  A    between atoms: _265  and  _266
REMARK  106  A    between atoms: _265  and  _268
REMARK  107  A    between atoms: _268  and  _269
REMARK  108  A    between atoms: _269  and  _270
REMARK  109  A    between atoms: _270  and  _271
REMARK  110  A    between atoms: _271  and  _272
REMARK  111  A    between atoms: _276  and  _278
REMARK  112  A    between atoms: _278  and  _279
REMARK  113  A    between atoms: _278  and  _281
REMARK  114  A    between atoms: _281  and  _282
REMARK  115  A    between atoms: _286  and  _287
REMARK  116  A    between atoms: _292  and  _294
REMARK  117  A    between atoms: _294  and  _295
REMARK  118  A    between atoms: _297  and  _299
REMARK  119  A    between atoms: _299  and  _300
REMARK  120  A    between atoms: _299  and  _302
REMARK  121  A    between atoms: _302  and  _303
REMARK  122  A    between atoms: _309  and  _310
REMARK  123  A    between atoms: _315  and  _317
REMARK  124  A    between atoms: _317  and  _318
REMARK  125  A    between atoms: _317  and  _320
REMARK  126  A    between atoms: _320  and  _321
REMARK  127  A    between atoms: _324  and  _326
REMARK  128  A    between atoms: _326  and  _327
REMARK  129  A    between atoms: _326  and  _329
REMARK  130  A    between atoms: _329  and  _330
REMARK  131  A    between atoms: _330  and  _331
REMARK  132  A    between atoms: _331  and  _332
REMARK  133  A    between atoms: _341  and  _343
REMARK  134  A    between atoms: _343  and  _344
REMARK  135  A    between atoms: _343  and  _346
REMARK  136  A    between atoms: _346  and  _347
REMARK  137  A    between atoms: _349  and  _351
REMARK  138  A    between atoms: _351  and  _352
REMARK  139  A    between atoms: _351  and  _354
REMARK  140  A    between atoms: _354  and  _355
REMARK  141  A    between atoms: _360  and  _361
REMARK  142  A    between atoms: _363  and  _365
REMARK  143  A    between atoms: _365  and  _366
REMARK  144  A    between atoms: _365  and  _368
REMARK  145  A    between atoms: _368  and  _369
REMARK  146  A    between atoms: _374  and  _376
REMARK  147  A    between atoms: _376  and  _377
REMARK  148  A    between atoms: _376  and  _379
REMARK  149  A    between atoms: _379  and  _380
REMARK  150  A    between atoms: _380  and  _381
REMARK  151  A    between atoms: _386  and  _388
REMARK  152  A    between atoms: _388  and  _389
REMARK  153  A    between atoms: _388  and  _391
REMARK  154  A    between atoms: _391  and  _392
REMARK  155  A    between atoms: _395  and  _397
REMARK  156  A    between atoms: _397  and  _398
REMARK  157  A    between atoms: _401  and  _403
REMARK  158  A    between atoms: _403  and  _404
REMARK  159  A    between atoms: _407  and  _409
REMARK  160  A    between atoms: _409  and  _410
REMARK  161  A    between atoms: _409  and  _412
REMARK  162  A    between atoms: _412  and  _413
REMARK  163  A    between atoms: _413  and  _414
REMARK  164  A    between atoms: _416  and  _418
REMARK  165  A    between atoms: _418  and  _419
REMARK  166  A    between atoms: _418  and  _421
REMARK  167  A    between atoms: _421  and  _422
REMARK  168  A    between atoms: _422  and  _423
REMARK  169  A    between atoms: _423  and  _424
REMARK  170  A    between atoms: _433  and  _435
REMARK  171  A    between atoms: _435  and  _436
REMARK  172  A    between atoms: _435  and  _438
REMARK  173  A    between atoms: _438  and  _439
REMARK  174  A    between atoms: _439  and  _440
REMARK  175  A    between atoms: _445  and  _447
REMARK  176  A    between atoms: _447  and  _448
REMARK  177  A    between atoms: _450  and  _452
REMARK  178  A    between atoms: _452  and  _453
REMARK  179  A    between atoms: _452  and  _455
REMARK  180  A    between atoms: _455  and  _456
REMARK  181  A    between atoms: _459  and  _461
REMARK  182  A    between atoms: _461  and  _462
REMARK  183  A    between atoms: _461  and  _464
REMARK  184  A    between atoms: _464  and  _465
REMARK  185  A    between atoms: _465  and  _466
REMARK  186  A    between atoms: _469  and  _471
REMARK  187  A    between atoms: _471  and  _472
REMARK  188  A    between atoms: _471  and  _474
REMARK  189  A    between atoms: _474  and  _475
REMARK  190  A    between atoms: _475  and  _476
REMARK  191  A    between atoms: _479  and  _481
REMARK  192  A    between atoms: _481  and  _482
REMARK  193  A    between atoms: _481  and  _484
REMARK  194  A    between atoms: _484  and  _485
REMARK  195  A    between atoms: _488  and  _490
REMARK  196  A    between atoms: _490  and  _491
REMARK  197  A    between atoms: _490  and  _493
REMARK  198  A    between atoms: _493  and  _494
REMARK  199  A    between atoms: _494  and  _495
REMARK  200  A    between atoms: _495  and  _496
REMARK  201  A    between atoms: _505  and  _507
REMARK  202  A    between atoms: _507  and  _508
REMARK  203  A    between atoms: _507  and  _510
REMARK  204  A    between atoms: _510  and  _511
REMARK  205  A    between atoms: _514  and  _516
REMARK  206  A    between atoms: _516  and  _517
REMARK  207  A    between atoms: _520  and  _522
REMARK  208  A    between atoms: _522  and  _523
REMARK  209  A    between atoms: _522  and  _525
REMARK  210  A    between atoms: _528  and  _530
REMARK  211  A    between atoms: _530  and  _531
REMARK  212  A    between atoms: _530  and  _533
REMARK  213  A    between atoms: _533  and  _534
REMARK  214  A    between atoms: _537  and  _539
REMARK  215  A    between atoms: _539  and  _540
REMARK  216  A    between atoms: _539  and  _542
REMARK  217  A    between atoms: _542  and  _543
REMARK  218  A    between atoms: _548  and  _549
REMARK                            x       y       z     vdW  Elec       q    Type
REMARK                         _______ _______ _______ _____ _____    ______ ____
ROOT
ATOM      1  CA  LEU A   9      -6.302   2.714 -24.667  0.00  0.00    +0.149 C 
ENDROOT
BRANCH   1   2
ATOM      2  C   LEU A   9      -6.670   1.325 -25.163  0.00  0.00    +0.244 C 
ATOM      3  O   LEU A   9      -7.818   0.857 -24.953  0.00  0.00    -0.273 OA
ATOM      4  N   PRO A  10      -5.701   0.607 -25.760  0.00  0.00    -0.272 N 
ATOM      5  CA  PRO A  10      -6.035  -0.763 -26.148  0.00  0.00    +0.152 C 
ATOM      6  CB  PRO A  10      -4.776  -1.265 -26.891  0.00  0.00    +0.031 C 
ATOM      7  CG  PRO A  10      -3.661  -0.343 -26.503  0.00  0.00    +0.024 C 
ATOM      8  CD  PRO A  10      -4.321   0.997 -26.164  0.00  0.00    +0.094 C 
BRANCH   5   9
ATOM      9  C   PRO A  10      -6.267  -1.646 -24.926  0.00  0.00    +0.241 C 
ATOM     10  O   PRO A  10      -5.620  -1.432 -23.883  0.00  0.00    -0.273 OA
ATOM     11  N   GLY A  11      -7.164  -2.630 -25.069  0.00  0.00    -0.295 N 
ATOM     12  H   GLY A  11      -7.654  -2.727 -25.981  0.00  0.00    +0.150 HD
BRANCH  11  13
ATOM     13  CA  GLY A  11      -7.487  -3.581 -23.993  0.00  0.00    +0.176 C 
BRANCH  13  14
ATOM     14  C   GLY A  11      -8.185  -2.920 -22.835  0.00  0.00    +0.243 C 
ATOM     15  N   ASN A  12      -8.009  -3.539 -21.676  0.00  0.00    -0.297 N 
ATOM     16  H   ASN A  12      -7.355  -4.346 -21.636  0.00  0.00    +0.150 HD
ATOM     17  O   GLY A  11      -8.853  -1.914 -22.992  0.00  0.00    -0.273 OA
BRANCH  15  18
ATOM     18  CA  ASN A  12      -8.698  -3.132 -20.452  0.00  0.00    +0.158 C 
BRANCH  18  19
ATOM     19  C   ASN A  12      -7.620  -2.955 -19.382  0.00  0.00    +0.244 C 
ATOM     20  O   ASN A  12      -7.561  -3.702 -18.412  0.00  0.00    -0.273 OA
ATOM     21  N   PRO A  13      -6.777  -1.920 -19.527  0.00  0.00    -0.272 N 
ATOM     22  CA  PRO A  13      -5.635  -1.766 -18.590  0.00  0.00    +0.152 C 
ATOM     23  CB  PRO A  13      -4.798  -0.628 -19.203  0.00  0.00    +0.031 C 
ATOM     24  CG  PRO A  13      -5.782   0.160 -19.947  0.00  0.00    +0.024 C 
ATOM     25  CD  PRO A  13      -6.739  -0.871 -20.576  0.00  0.00    +0.094 C 
BRANCH  22  26
ATOM     26  C   PRO A  13      -6.108  -1.393 -17.186  0.00  0.00    +0.241 C 
ATOM     27  O   PRO A  13      -5.339  -1.603 -16.277  0.00  0.00    -0.273 OA
ATOM     28  N   THR A  14      -7.310  -0.798 -16.999  0.00  0.00    -0.295 N 
ATOM     29  H   THR A  14      -7.905  -0.553 -17.816  0.00  0.00    +0.150 HD
BRANCH  28  30
ATOM     30  CA  THR A  14      -7.773  -0.498 -15.625  0.00  0.00    +0.176 C 
BRANCH  30  31
ATOM     31  C   THR A  14      -8.390  -1.737 -14.961  0.00  0.00    +0.243 C 
ATOM     32  O   THR A  14      -8.835  -1.678 -13.812  0.00  0.00    -0.273 OA
ATOM     33  N   ARG A  15      -8.487  -2.845 -15.704  0.00  0.00    -0.297 N 
ATOM     34  H   ARG A  15      -8.137  -2.818 -16.683  0.00  0.00    +0.150 HD
BRANCH  33  35
ATOM     35  CA  ARG A  15      -9.064  -4.096 -15.203  0.00  0.00    +0.149 C 
BRANCH  35  36
ATOM     36  C   ARG A  15     -10.446  -3.806 -14.607  0.00  0.00    +0.241 C 
ATOM     37  O   ARG A  15     -10.778  -4.186 -13.441  0.00  0.00    -0.273 OA
ATOM     38  N   SER A  16     -11.287  -3.149 -15.433  0.00  0.00    -0.295 N 
ATOM     39  H   SER A  16     -10.951  -2.875 -16.378  0.00  0.00    +0.150 HD
BRANCH  38  40
ATOM     40  CA  SER A  16     -12.634  -2.815 -15.048  0.00  0.00    +0.178 C 
BRANCH  40  41
ATOM     41  C   SER A  16     -13.602  -3.771 -15.699  0.00  0.00    +0.243 C 
ATOM     42  N   TYR A  17     -14.541  -4.294 -14.942  0.00  0.00    -0.298 N 
ATOM     43  H   TYR A  17     -14.624  -3.969 -13.958  0.00  0.00    +0.150 HD
ATOM     44  O   SER A  16     -13.501  -4.026 -16.893  0.00  0.00    -0.273 OA
BRANCH  42  45
ATOM     45  CA  TYR A  17     -15.479  -5.319 -15.425  0.00  0.00    +0.141 C 
BRANCH  45  46
ATOM     46  C   TYR A  17     -16.918  -4.977 -15.042  0.00  0.00    +0.227 C 
ATOM     47  O   TYR A  17     -17.191  -4.056 -14.217  0.00  0.00    -0.286 OA
ENDBRANCH  45  46
BRANCH  45  48
ATOM     48  CB  TYR A  17     -15.128  -6.679 -14.757  0.00  0.00    +0.054 C 
BRANCH  48  49
ATOM     49  CG  TYR A  17     -13.644  -7.028 -14.995  0.00  0.00    -0.020 A 
ATOM     50  CD2 TYR A  17     -12.687  -6.889 -13.974  0.00  0.00    -0.001 A 
ATOM     51  CE2 TYR A  17     -11.334  -7.140 -14.181  0.00  0.00    +0.036 A 
ATOM     52  CZ  TYR A  17     -10.911  -7.544 -15.422  0.00  0.00    +0.134 A 
ATOM     53  CE1 TYR A  17     -11.835  -7.649 -16.499  0.00  0.00    +0.036 A 
ATOM     54  CD1 TYR A  17     -13.210  -7.381 -16.244  0.00  0.00    -0.001 A 
BRANCH  52  55
ATOM     55  OH  TYR A  17      -9.574  -7.758 -15.651  0.00  0.00    -0.506 OA
ATOM     56  HH  TYR A  17      -9.073  -7.647 -14.804  0.00  0.00    +0.292 HD
ENDBRANCH  52  55
ENDBRANCH  48  49
ENDBRANCH  45  48
ENDBRANCH  42  45
ENDBRANCH  40  41
BRANCH  40  57
ATOM     57  CB  SER A  16     -12.997  -1.383 -15.484  0.00  0.00    +0.166 C 
BRANCH  57  58
ATOM     58  OG  SER A  16     -12.227  -0.451 -14.743  0.00  0.00    -0.380 OA
ATOM     59  H   SER A  16     -11.265  -0.613 -14.910  0.00  0.00    +0.211 HD
ENDBRANCH  57  58
ENDBRANCH  40  57
ENDBRANCH  38  40
ENDBRANCH  35  36
BRANCH  35  60
ATOM     60  CB  ARG A  15      -8.151  -4.721 -14.139  0.00  0.00    +0.033 C 
BRANCH  60  61
ATOM     61  CG  ARG A  15      -6.759  -4.922 -14.712  0.00  0.00    +0.045 C 
BRANCH  61  62
ATOM     62  CD  ARG A  15      -6.684  -6.197 -15.509  0.00  0.00    +0.174 C 
BRANCH  62  63
ATOM     63  NE  ARG A  15      -6.962  -7.403 -14.699  0.00  0.00    -0.265 N 
ATOM     64  CZ  ARG A  15      -6.034  -8.237 -14.224  0.00  0.00    +0.342 C 
ATOM     65  NH2 ARG A  15      -6.429  -9.293 -13.511  0.00  0.00    -0.292 N 
ATOM     66 HH21 ARG A  15      -5.724  -9.957 -13.131  0.00  0.00    +0.255 HD
ATOM     67 HH22 ARG A  15      -7.442  -9.453 -13.336  0.00  0.00    +0.255 HD
ATOM     68  NH1 ARG A  15      -4.726  -8.018 -14.414  0.00  0.00    -0.292 N 
ATOM     69 HH11 ARG A  15      -4.026  -8.686 -14.032  0.00  0.00    +0.255 HD
ATOM     70 HH12 ARG A  15      -4.411  -7.180 -14.944  0.00  0.00    +0.255 HD
ATOM     71  HE  ARG A  15      -7.956  -7.618 -14.483  0.00  0.00    +0.259 HD
ENDBRANCH  62  63
ENDBRANCH  61  62
ENDBRANCH  60  61
ENDBRANCH  35  60
ENDBRANCH  33  35
ENDBRANCH  30  31
BRANCH  30  72
ATOM     72  CB  THR A  14      -8.763   0.669 -15.616  0.00  0.00    +0.137 C 
ATOM     73  CG2 THR A  14      -8.220   1.914 -16.329  0.00  0.00    +0.034 C 
BRANCH  72  74
ATOM     74  OG1 THR A  14     -10.021   0.244 -16.144  0.00  0.00    -0.382 OA
ATOM     75  HG1 THR A  14      -9.897  -0.073 -17.074  0.00  0.00    +0.210 HD
ENDBRANCH  72  74
ENDBRANCH  30  72
ENDBRANCH  28  30
ENDBRANCH  22  26
ENDBRANCH  18  19
BRANCH  18  76
ATOM     76  CB  ASN A  12      -9.638  -4.260 -20.084  0.00  0.00    +0.114 C 
BRANCH  76  77
ATOM     77  CG  ASN A  12     -10.481  -3.966 -18.867  0.00  0.00    +0.222 C 
ATOM     78  OD1 ASN A  12     -10.432  -2.851 -18.300  0.00  0.00    -0.275 OA
ATOM     79  ND2 ASN A  12     -11.324  -4.923 -18.505  0.00  0.00    -0.329 N 
ATOM     80 HD21 ASN A  12     -11.984  -4.764 -17.717  0.00  0.00    +0.145 HD
ATOM     81 HD22 ASN A  12     -11.325  -5.833 -19.009  0.00  0.00    +0.145 HD
ENDBRANCH  76  77
ENDBRANCH  18  76
ENDBRANCH  15  18
ENDBRANCH  13  14
ENDBRANCH  11  13
ENDBRANCH   5   9
ENDBRANCH   1   2
BRANCH   1  83
ATOM     82  C   LYS A   8      -7.459   4.830 -25.006  0.00  0.00    +0.241 C 
ATOM     83  N   LEU A   9      -7.475   3.588 -24.554  0.00  0.00    -0.297 N 
ATOM     84  H   LEU A   9      -8.340   3.222 -24.108  0.00  0.00    +0.150 HD
ATOM     85  O   LYS A   8      -6.469   5.338 -25.525  0.00  0.00    -0.273 OA
BRANCH  82  86
ATOM     86  CA  LYS A   8      -8.730   5.647 -24.822  0.00  0.00    +0.149 C 
BRANCH  86  88
ATOM     87  C   LYS A   7     -10.333   4.214 -25.889  0.00  0.00    +0.241 C 
ATOM     88  N   LYS A   8      -9.922   4.799 -24.771  0.00  0.00    -0.297 N 
ATOM     89  H   LYS A   8     -10.436   4.658 -23.878  0.00  0.00    +0.150 HD
ATOM     90  O   LYS A   7      -9.709   4.310 -26.952  0.00  0.00    -0.273 OA
BRANCH  87  91
ATOM     91  CA  LYS A   7     -11.565   3.316 -25.811  0.00  0.00    +0.149 C 
BRANCH  91  93
ATOM     92  C   ASP A   6     -11.155   1.023 -26.597  0.00  0.00    +0.241 C 
ATOM     93  N   LYS A   7     -11.038   1.938 -25.630  0.00  0.00    -0.297 N 
ATOM     94  H   LYS A   7     -10.571   1.682 -24.737  0.00  0.00    +0.150 HD
ATOM     95  O   ASP A   6     -11.660   1.284 -27.699  0.00  0.00    -0.273 OA
BRANCH  92  96
ATOM     96  CA  ASP A   6     -10.539  -0.361 -26.322  0.00  0.00    +0.160 C 
BRANCH  96  98
ATOM     97  C   THR A   5     -11.942  -0.770 -24.353  0.00  0.00    +0.243 C 
ATOM     98  N   ASP A   6     -10.719  -0.719 -24.918  0.00  0.00    -0.296 N 
ATOM     99  H   ASP A   6      -9.883  -0.940 -24.340  0.00  0.00    +0.150 HD
ATOM    100  O   THR A   5     -13.021  -0.489 -24.960  0.00  0.00    -0.273 OA
BRANCH  97 101
ATOM    101  CA  THR A   5     -11.955  -1.101 -22.857  0.00  0.00    +0.176 C 
BRANCH 101 104
ATOM    102  C   VAL A   4     -12.097   0.714 -21.250  0.00  0.00    +0.241 C 
ATOM    103  O   VAL A   4     -10.932   0.571 -20.909  0.00  0.00    -0.273 OA
ATOM    104  N   THR A   5     -12.678  -0.024 -22.179  0.00  0.00    -0.295 N 
ATOM    105  H   THR A   5     -13.669   0.164 -22.434  0.00  0.00    +0.150 HD
BRANCH 102 106
ATOM    106  CA  VAL A   4     -12.966   1.800 -20.571  0.00  0.00    +0.149 C 
BRANCH 106 108
ATOM    107  C   ASN A   3     -15.195   2.532 -21.162  0.00  0.00    +0.241 C 
ATOM    108  N   VAL A   4     -14.404   1.534 -20.750  0.00  0.00    -0.297 N 
ATOM    109  H   VAL A   4     -14.797   0.590 -20.560  0.00  0.00    +0.150 HD
ATOM    110  O   ASN A   3     -14.774   3.631 -21.522  0.00  0.00    -0.273 OA
BRANCH 107 111
ATOM    111  CA  ASN A   3     -16.690   2.219 -21.228  0.00  0.00    +0.158 C 
BRANCH 111 113
ATOM    112  C   PRO A   2     -16.553   0.109 -22.424  0.00  0.00    +0.241 C 
ATOM    113  N   ASN A   3     -16.968   0.746 -21.318  0.00  0.00    -0.297 N 
ATOM    114  H   ASN A   3     -17.462   0.240 -20.555  0.00  0.00    +0.150 HD
ATOM    115  O   PRO A   2     -15.938   0.671 -23.348  0.00  0.00    -0.273 OA
BRANCH 112 122
ATOM    116  C   ASP A   1     -16.150  -2.084 -20.310  0.00  0.00    +0.242 C 
ATOM    117  O   ASP A   1     -15.054  -1.506 -20.447  0.00  0.00    -0.273 OA
ATOM    118  N   PRO A   2     -17.114  -1.994 -21.242  0.00  0.00    -0.272 N 
ATOM    119  CD  PRO A   2     -18.519  -2.468 -21.138  0.00  0.00    +0.094 C 
ATOM    120  CG  PRO A   2     -19.141  -1.911 -22.409  0.00  0.00    +0.024 C 
ATOM    121  CB  PRO A   2     -18.094  -1.591 -23.391  0.00  0.00    +0.031 C 
ATOM    122  CA  PRO A   2     -16.808  -1.363 -22.543  0.00  0.00    +0.152 C 
BRANCH 116 123
ATOM    123  CA  ASP A   1     -16.462  -2.851 -19.029  0.00  0.00    +0.156 C 
BRANCH 123 124
ATOM    124  N   ASP A   1     -15.616  -4.030 -18.965  0.00  0.00    -0.238 NA
ATOM    125  H   ASP A   1     -14.773  -4.025 -18.355  0.00  0.00    +0.142 HD
ENDBRANCH 123 124
BRANCH 123 126
ATOM    126  CB  ASP A   1     -16.039  -2.005 -17.821  0.00  0.00    +0.140 C 
BRANCH 126 127
ATOM    127  CG  ASP A   1     -16.771  -0.660 -17.699  0.00  0.00    +0.367 C 
ATOM    128  OD2 ASP A   1     -16.607  -0.013 -16.629  0.00  0.00    -0.246 OA
ATOM    129  OD1 ASP A   1     -17.522  -0.275 -18.658  0.00  0.00    -0.246 OA
ENDBRANCH 126 127
ENDBRANCH 123 126
ENDBRANCH 116 123
ENDBRANCH 112 122
ENDBRANCH 111 113
BRANCH 111 130
ATOM    130  CB  ASN A   3     -17.381   2.847 -20.011  0.00  0.00    +0.114 C 
BRANCH 130 131
ATOM    131  CG  ASN A   3     -18.873   2.739 -20.131  0.00  0.00    +0.222 C 
ATOM    132  ND2 ASN A   3     -19.463   1.737 -19.464  0.00  0.00    -0.329 N 
ATOM    133 HD21 ASN A   3     -18.910   1.158 -18.800  0.00  0.00    +0.145 HD
ATOM    134 HD22 ASN A   3     -20.473   1.538 -19.611  0.00  0.00    +0.145 HD
ATOM    135  OD1 ASN A   3     -19.473   3.440 -20.914  0.00  0.00    -0.275 OA
ENDBRANCH 130 131
ENDBRANCH 111 130
ENDBRANCH 107 111
ENDBRANCH 106 108
BRANCH 106 136
ATOM    136  CB  VAL A   4     -12.577   2.018 -19.078  0.00  0.00    +0.027 C 
ATOM    137  CG2 VAL A   4     -12.962   0.800 -18.229  0.00  0.00    +0.002 C 
ATOM    138  CG1 VAL A   4     -13.256   3.348 -18.601  0.00  0.00    +0.002 C 
ENDBRANCH 106 136
ENDBRANCH 102 106
ENDBRANCH 101 104
BRANCH 101 139
ATOM    139  CB  THR A   5     -12.694  -2.450 -22.671  0.00  0.00    +0.137 C 
ATOM    140  CG2 THR A   5     -11.981  -3.585 -23.499  0.00  0.00    +0.034 C 
BRANCH 139 141
ATOM    141  OG1 THR A   5     -12.648  -2.796 -21.296  0.00  0.00    -0.382 OA
ATOM    142  HG1 THR A   5     -13.092  -2.089 -20.764  0.00  0.00    +0.210 HD
ENDBRANCH 139 141
ENDBRANCH 101 139
ENDBRANCH  97 101
ENDBRANCH  96  98
BRANCH  96 143
ATOM    143  CB  ASP A   6     -11.160  -1.415 -27.240  0.00  0.00    +0.143 C 
BRANCH 143 144
ATOM    144  CG  ASP A   6     -10.351  -2.699 -27.274  0.00  0.00    +0.367 C 
ATOM    145  OD2 ASP A   6     -10.976  -3.789 -27.229  0.00  0.00    -0.246 OA
ATOM    146  OD1 ASP A   6      -9.096  -2.603 -27.287  0.00  0.00    -0.246 OA
ENDBRANCH 143 144
ENDBRANCH  96 143
ENDBRANCH  92  96
ENDBRANCH  91  93
BRANCH  91 147
ATOM    147  CB  LYS A   7     -12.543   3.680 -24.668  0.00  0.00    +0.029 C 
BRANCH 147 148
ATOM    148  CG  LYS A   7     -13.860   2.937 -24.839  0.00  0.00    +0.000 C 
BRANCH 148 149
ATOM    149  CD  LYS A   7     -14.582   3.255 -26.133  0.00  0.00    -0.024 C 
BRANCH 149 150
ATOM    150  CE  LYS A   7     -15.974   2.528 -26.121  0.00  0.00    -0.086 C 
BRANCH 150 151
ATOM    151  NZ  LYS A   7     -15.895   1.007 -26.164  0.00  0.00    +0.380 N 
ATOM    152  HZ1 LYS A   7     -15.368   0.665 -25.335  0.00  0.00    -0.089 HD
ATOM    153  HZ2 LYS A   7     -16.856   0.611 -26.153  0.00  0.00    -0.089 HD
ATOM    154  HZ3 LYS A   7     -15.407   0.711 -27.033  0.00  0.00    -0.089 HD
ENDBRANCH 150 151
ENDBRANCH 149 150
ENDBRANCH 148 149
ENDBRANCH 147 148
ENDBRANCH  91 147
ENDBRANCH  87  91
ENDBRANCH  86  88
BRANCH  86 155
ATOM    155  CB  LYS A   8      -8.587   6.543 -23.582  0.00  0.00    +0.029 C 
BRANCH 155 156
ATOM    156  CG  LYS A   8      -9.593   7.712 -23.535  0.00  0.00    +0.000 C 
BRANCH 156 157
ATOM    157  CD  LYS A   8      -8.951   8.978 -22.897  0.00  0.00    -0.024 C 
BRANCH 157 158
ATOM    158  CE  LYS A   8      -8.327   8.741 -21.496  0.00  0.00    -0.086 C 
BRANCH 158 159
ATOM    159  NZ  LYS A   8      -7.007   9.387 -21.104  0.00  0.00    +0.380 N 
ATOM    160  HZ1 LYS A   8      -6.760   9.107 -20.133  0.00  0.00    -0.089 HD
ATOM    161  HZ2 LYS A   8      -7.100  10.422 -21.155  0.00  0.00    -0.089 HD
ATOM    162  HZ3 LYS A   8      -6.261   9.072 -21.757  0.00  0.00    -0.089 HD
ENDBRANCH 158 159
ENDBRANCH 157 158
ENDBRANCH 156 157
ENDBRANCH 155 156
ENDBRANCH  86 155
ENDBRANCH  82  86
ENDBRANCH   1  83
BRANCH   1 163
ATOM    163  CB  LEU A   9      -5.650   2.608 -23.293  0.00  0.00    +0.029 C 
BRANCH 163 164
ATOM    164  CG  LEU A   9      -5.254   3.899 -22.569  0.00  0.00    +0.002 C 
ATOM    165  CD2 LEU A   9      -4.731   3.652 -21.182  0.00  0.00    +0.000 C 
ATOM    166  CD1 LEU A   9      -4.156   4.625 -23.358  0.00  0.00    +0.000 C 
ENDBRANCH 163 164
ENDBRANCH   1 163
TORSDOF 65
REMARK  Name = ../refined-set-2016/2hw2/2hw2_pocket.pdb
REMARK  218 active torsions:
REMARK  status: ('A' for Active; 'I' for Inactive)
REMARK    1  A    between atoms: _2  and  _3
REMARK    2  A    between atoms: _8  and  _10
REMARK    3  A    between atoms: _10  and  _11
REMARK    4  A    between atoms: _10  and  _13
REMARK    5  A    between atoms: _13  and  _14
REMARK    6  A    between atoms: _20  and  _22
REMARK    7  A    between atoms: _22  and  _23
REMARK    8  A    between atoms: _25  and  _27
REMARK    9  A    between atoms: _27  and  _28
REMARK   10  A    between atoms: _27  and  _30
REMARK   11  A    between atoms: _30  and  _31
REMARK   12  A    between atoms: _33  and  _35
REMARK   13  A    between atoms: _35  and  _36
REMARK   14  A    between atoms: _35  and  _38
REMARK   15  A    between atoms: _38  and  _39
REMARK   16  A    between atoms: _44  and  _46
REMARK   17  A    between atoms: _46  and  _47
REMARK   18  A    between atoms: _46  and  _49
REMARK   19  A    between atoms: _49  and  _50
REMARK   20  A    between atoms: _56  and  _58
REMARK   21  A    between atoms: _58  and  _59
REMARK   22  A    between atoms: _58  and  _61
REMARK   23  A    between atoms: _61  and  _62
REMARK   24  A    between atoms: _62  and  _63
REMARK   25  A    between atoms: _66  and  _68
REMARK   26  A    between atoms: _68  and  _69
REMARK   27  A    between atoms: _68  and  _71
REMARK   28  A    between atoms: _71  and  _72
REMARK   29  A    between atoms: _72  and  _73
REMARK   30  A    between atoms: _75  and  _77
REMARK   31  A    between atoms: _77  and  _78
REMARK   32  A    between atoms: _77  and  _80
REMARK   33  A    between atoms: _80  and  _81
REMARK   34  A    between atoms: _86  and  _87
REMARK   35  A    between atoms: _89  and  _91
REMARK   36  A    between atoms: _91  and  _92
REMARK   37  A    between atoms: _91  and  _94
REMARK   38  A    between atoms: _94  and  _95
REMARK   39  A    between atoms: _98  and  _100
REMARK   40  A    between atoms: _100  and  _101
REMARK   41  A    between atoms: _100  and  _103
REMARK   42  A    between atoms: _103  and  _104
REMARK   43  A    between atoms: _107  and  _109
REMARK   44  A    between atoms: _109  and  _110
REMARK   45  A    between atoms: _109  and  _112
REMARK   46  A    between atoms: _112  and  _113
REMARK   47  A    between atoms: _116  and  _118
REMARK   48  A    between atoms: _118  and  _119
REMARK   49  A    between atoms: _118  and  _121
REMARK   50  A    between atoms: _121  and  _122
REMARK   51  A    between atoms: _125  and  _127
REMARK   52  A    between atoms: _127  and  _128
REMARK   53  A    between atoms: _131  and  _133
REMARK   54  A    between atoms: _133  and  _134
REMARK   55  A    between atoms: _137  and  _139
REMARK   56  A    between atoms: _139  and  _140
REMARK   57  A    between atoms: _139  and  _142
REMARK   58  A    between atoms: _145  and  _147
REMARK   59  A    between atoms: _147  and  _148
REMARK   60  A    between atoms: _147  and  _150
REMARK   61  A    between atoms: _150  and  _151
REMARK   62  A    between atoms: _161  and  _163
REMARK   63  A    between atoms: _163  and  _164
REMARK   64  A    between atoms: _166  and  _168
REMARK   65  A    between atoms: _168  and  _169
REMARK   66  A    between atoms: _172  and  _174
REMARK   67  A    between atoms: _174  and  _175
REMARK   68  A    between atoms: _174  and  _177
REMARK   69  A    between atoms: _177  and  _178
REMARK   70  A    between atoms: _178  and  _179
REMARK   71  A    between atoms: _182  and  _184
REMARK   72  A    between atoms: _184  and  _185
REMARK   73  A    between atoms: _184  and  _187
REMARK   74  A    between atoms: _187  and  _188
REMARK   75  A    between atoms: _191  and  _193
REMARK   76  A    between atoms: _193  and  _194
REMARK   77  A    between atoms: _197  and  _199
REMARK   78  A    between atoms: _199  and  _200
REMARK   79  A    between atoms: _199  and  _202
REMARK   80  A    between atoms: _202  and  _203
REMARK   81  A    between atoms: _207  and  _208
REMARK   82  A    between atoms: _213  and  _215
REMARK   83  A    between atoms: _215  and  _216
REMARK   84  A    between atoms: _215  and  _218
REMARK   85  A    between atoms: _218  and  _219
REMARK   86  A    between atoms: _224  and  _226
REMARK   87  A    between atoms: _226  and  _227
REMARK   88  A    between atoms: _226  and  _229
REMARK   89  A    between atoms: _232  and  _234
REMARK   90  A    between atoms: _234  and  _235
REMARK   91  A    between atoms: _234  and  _237
REMARK   92  A    between atoms: _237  and  _238
REMARK   93  A    between atoms: _241  and  _243
REMARK   94  A    between atoms: _243  and  _244
REMARK   95  A    between atoms: _243  and  _246
REMARK   96  A    between atoms: _246  and  _247
REMARK   97  A    between atoms: _250  and  _252
REMARK   98  A    between atoms: _252  and  _253
REMARK   99  A    between atoms: _252  and  _255
REMARK  100  A    between atoms: _255  and  _256
REMARK  101  A    between atoms: _256  and  _257
REMARK  102  A    between atoms: _257  and  _258
REMARK  103  A    between atoms: _258  and  _259
REMARK  104  A    between atoms: _263  and  _265
REMARK  105  A    between atoms: _265  and  _266
REMARK  106  A    between atoms: _265  and  _268
REMARK  107  A    between atoms: _268  and  _269
REMARK  108  A    between atoms: _269  and  _270
REMARK  109  A    between atoms: _270  and  _271
REMARK  110  A    between atoms: _271  and  _272
REMARK  111  A    between atoms: _276  and  _278
REMARK  112  A    between atoms: _278  and  _279
REMARK  113  A    between atoms: _278  and  _281
REMARK  114  A    between atoms: _281  and  _282
REMARK  115  A    between atoms: _286  and  _287
REMARK  116  A    between atoms: _292  and  _294
REMARK  117  A    between atoms: _294  and  _295
REMARK  118  A    between atoms: _297  and  _299
REMARK  119  A    between atoms: _299  and  _300
REMARK  120  A    between atoms: _299  and  _302
REMARK  121  A    between atoms: _302  and  _303
REMARK  122  A    between atoms: _309  and  _310
REMARK  123  A    between atoms: _315  and  _317
REMARK  124  A    between atoms: _317  and  _318
REMARK  125  A    between atoms: _317  and  _320
REMARK  126  A    between atoms: _320  and  _321
REMARK  127  A    between atoms: _324  and  _326
REMARK  128  A    between atoms: _326  and  _327
REMARK  129  A    between atoms: _326  and  _329
REMARK  130  A    between atoms: _329  and  _330
REMARK  131  A    between atoms: _330  and  _331
REMARK  132  A    between atoms: _331  and  _332
REMARK  133  A    between atoms: _341  and  _343
REMARK  134  A    between atoms: _343  and  _344
REMARK  135  A    between atoms: _343  and  _346
REMARK  136  A    between atoms: _346  and  _347
REMARK  137  A    between atoms: _349  and  _351
REMARK  138  A    between atoms: _351  and  _352
REMARK  139  A    between atoms: _351  and  _354
REMARK  140  A    between atoms: _354  and  _355
REMARK  141  A    between atoms: _360  and  _361
REMARK  142  A    between atoms: _363  and  _365
REMARK  143  A    between atoms: _365  and  _366
REMARK  144  A    between atoms: _365  and  _368
REMARK  145  A    between atoms: _368  and  _369
REMARK  146  A    between atoms: _374  and  _376
REMARK  147  A    between atoms: _376  and  _377
REMARK  148  A    between atoms: _376  and  _379
REMARK  149  A    between atoms: _379  and  _380
REMARK  150  A    between atoms: _380  and  _381
REMARK  151  A    between atoms: _386  and  _388
REMARK  152  A    between atoms: _388  and  _389
REMARK  153  A    between atoms: _388  and  _391
REMARK  154  A    between atoms: _391  and  _392
REMARK  155  A    between atoms: _395  and  _397
REMARK  156  A    between atoms: _397  and  _398
REMARK  157  A    between atoms: _401  and  _403
REMARK  158  A    between atoms: _403  and  _404
REMARK  159  A    between atoms: _407  and  _409
REMARK  160  A    between atoms: _409  and  _410
REMARK  161  A    between atoms: _409  and  _412
REMARK  162  A    between atoms: _412  and  _413
REMARK  163  A    between atoms: _413  and  _414
REMARK  164  A    between atoms: _416  and  _418
REMARK  165  A    between atoms: _418  and  _419
REMARK  166  A    between atoms: _418  and  _421
REMARK  167  A    between atoms: _421  and  _422
REMARK  168  A    between atoms: _422  and  _423
REMARK  169  A    between atoms: _423  and  _424
REMARK  170  A    between atoms: _433  and  _435
REMARK  171  A    between atoms: _435  and  _436
REMARK  172  A    between atoms: _435  and  _438
REMARK  173  A    between atoms: _438  and  _439
REMARK  174  A    between atoms: _439  and  _440
REMARK  175  A    between atoms: _445  and  _447
REMARK  176  A    between atoms: _447  and  _448
REMARK  177  A    between atoms: _450  and  _452
REMARK  178  A    between atoms: _452  and  _453
REMARK  179  A    between atoms: _452  and  _455
REMARK  180  A    between atoms: _455  and  _456
REMARK  181  A    between atoms: _459  and  _461
REMARK  182  A    between atoms: _461  and  _462
REMARK  183  A    between atoms: _461  and  _464
REMARK  184  A    between atoms: _464  and  _465
REMARK  185  A    between atoms: _465  and  _466
REMARK  186  A    between atoms: _469  and  _471
REMARK  187  A    between atoms: _471  and  _472
REMARK  188  A    between atoms: _471  and  _474
REMARK  189  A    between atoms: _474  and  _475
REMARK  190  A    between atoms: _475  and  _476
REMARK  191  A    between atoms: _479  and  _481
REMARK  192  A    between atoms: _481  and  _482
REMARK  193  A    between atoms: _481  and  _484
REMARK  194  A    between atoms: _484  and  _485
REMARK  195  A    between atoms: _488  and  _490
REMARK  196  A    between atoms: _490  and  _491
REMARK  197  A    between atoms: _490  and  _493
REMARK  198  A    between atoms: _493  and  _494
REMARK  199  A    between atoms: _494  and  _495
REMARK  200  A    between atoms: _495  and  _496
REMARK  201  A    between atoms: _505  and  _507
REMARK  202  A    between atoms: _507  and  _508
REMARK  203  A    between atoms: _507  and  _510
REMARK  204  A    between atoms: _510  and  _511
REMARK  205  A    between atoms: _514  and  _516
REMARK  206  A    between atoms: _516  and  _517
REMARK  207  A    between atoms: _520  and  _522
REMARK  208  A    between atoms: _522  and  _523
REMARK  209  A    between atoms: _522  and  _525
REMARK  210  A    between atoms: _528  and  _530
REMARK  211  A    between atoms: _530  and  _531
REMARK  212  A    between atoms: _530  and  _533
REMARK  213  A    between atoms: _533  and  _534
REMARK  214  A    between atoms: _537  and  _539
REMARK  215  A    between atoms: _539  and  _540
REMARK  216  A    between atoms: _539  and  _542
REMARK  217  A    between atoms: _542  and  _543
REMARK  218  A    between atoms: _548  and  _549
REMARK                            x       y       z     vdW  Elec       q    Type
REMARK                         _______ _______ _______ _____ _____    ______ ____
ROOT
ATOM      1  CB  HIS A   1      -7.533  11.440  -7.066  0.00  0.00    +0.072 C 
ENDROOT
BRANCH   1   2
ATOM      2  CG  HIS A   1      -7.542  10.108  -7.750  0.00  0.00    +0.082 A 
ATOM      3  ND1 HIS A   1      -8.661   9.286  -7.792  0.00  0.00    -0.227 NA
ATOM      4  CE1 HIS A   1      -8.318   8.142  -8.388  0.00  0.00    +0.199 A 
ATOM      5  NE2 HIS A   1      -7.036   8.184  -8.713  0.00  0.00    -0.221 NA
ATOM      6  CD2 HIS A   1      -6.528   9.413  -8.343  0.00  0.00    +0.115 A 
ENDBRANCH   1   2
BRANCH   1   7
ATOM      7  CA  HIS A   1      -6.749  11.393  -5.763  0.00  0.00    +0.139 C 
BRANCH   7   8
ATOM      8  N   HIS A   1      -7.520  10.575  -4.850  0.00  0.00    -0.239 NA
ATOM      9  H   HIS A   1      -8.452  10.222  -5.148  0.00  0.00    +0.142 HD
ENDBRANCH   7   8
BRANCH   7  10
ATOM     10  C   HIS A   1      -6.588  12.773  -5.188  0.00  0.00    +0.224 C 
ATOM     11  O   HIS A   1      -7.462  13.289  -4.443  0.00  0.00    -0.287 OA
ENDBRANCH   7  10
ENDBRANCH   1   7
TORSDOF 4
REMARK  Name = ../refined-set-2016/2hw2/2hw2_pocket.pdb
REMARK  218 active torsions:
REMARK  status: ('A' for Active; 'I' for Inactive)
REMARK    1  A    between atoms: _2  and  _3
REMARK    2  A    between atoms: _8  and  _10
REMARK    3  A    between atoms: _10  and  _11
REMARK    4  A    between atoms: _10  and  _13
REMARK    5  A    between atoms: _13  and  _14
REMARK    6  A    between atoms: _20  and  _22
REMARK    7  A    between atoms: _22  and  _23
REMARK    8  A    between atoms: _25  and  _27
REMARK    9  A    between atoms: _27  and  _28
REMARK   10  A    between atoms: _27  and  _30
REMARK   11  A    between atoms: _30  and  _31
REMARK   12  A    between atoms: _33  and  _35
REMARK   13  A    between atoms: _35  and  _36
REMARK   14  A    between atoms: _35  and  _38
REMARK   15  A    between atoms: _38  and  _39
REMARK   16  A    between atoms: _44  and  _46
REMARK   17  A    between atoms: _46  and  _47
REMARK   18  A    between atoms: _46  and  _49
REMARK   19  A    between atoms: _49  and  _50
REMARK   20  A    between atoms: _56  and  _58
REMARK   21  A    between atoms: _58  and  _59
REMARK   22  A    between atoms: _58  and  _61
REMARK   23  A    between atoms: _61  and  _62
REMARK   24  A    between atoms: _62  and  _63
REMARK   25  A    between atoms: _66  and  _68
REMARK   26  A    between atoms: _68  and  _69
REMARK   27  A    between atoms: _68  and  _71
REMARK   28  A    between atoms: _71  and  _72
REMARK   29  A    between atoms: _72  and  _73
REMARK   30  A    between atoms: _75  and  _77
REMARK   31  A    between atoms: _77  and  _78
REMARK   32  A    between atoms: _77  and  _80
REMARK   33  A    between atoms: _80  and  _81
REMARK   34  A    between atoms: _86  and  _87
REMARK   35  A    between atoms: _89  and  _91
REMARK   36  A    between atoms: _91  and  _92
REMARK   37  A    between atoms: _91  and  _94
REMARK   38  A    between atoms: _94  and  _95
REMARK   39  A    between atoms: _98  and  _100
REMARK   40  A    between atoms: _100  and  _101
REMARK   41  A    between atoms: _100  and  _103
REMARK   42  A    between atoms: _103  and  _104
REMARK   43  A    between atoms: _107  and  _109
REMARK   44  A    between atoms: _109  and  _110
REMARK   45  A    between atoms: _109  and  _112
REMARK   46  A    between atoms: _112  and  _113
REMARK   47  A    between atoms: _116  and  _118
REMARK   48  A    between atoms: _118  and  _119
REMARK   49  A    between atoms: _118  and  _121
REMARK   50  A    between atoms: _121  and  _122
REMARK   51  A    between atoms: _125  and  _127
REMARK   52  A    between atoms: _127  and  _128
REMARK   53  A    between atoms: _131  and  _133
REMARK   54  A    between atoms: _133  and  _134
REMARK   55  A    between atoms: _137  and  _139
REMARK   56  A    between atoms: _139  and  _140
REMARK   57  A    between atoms: _139  and  _142
REMARK   58  A    between atoms: _145  and  _147
REMARK   59  A    between atoms: _147  and  _148
REMARK   60  A    between atoms: _147  and  _150
REMARK   61  A    between atoms: _150  and  _151
REMARK   62  A    between atoms: _161  and  _163
REMARK   63  A    between atoms: _163  and  _164
REMARK   64  A    between atoms: _166  and  _168
REMARK   65  A    between atoms: _168  and  _169
REMARK   66  A    between atoms: _172  and  _174
REMARK   67  A    between atoms: _174  and  _175
REMARK   68  A    between atoms: _174  and  _177
REMARK   69  A    between atoms: _177  and  _178
REMARK   70  A    between atoms: _178  and  _179
REMARK   71  A    between atoms: _182  and  _184
REMARK   72  A    between atoms: _184  and  _185
REMARK   73  A    between atoms: _184  and  _187
REMARK   74  A    between atoms: _187  and  _188
REMARK   75  A    between atoms: _191  and  _193
REMARK   76  A    between atoms: _193  and  _194
REMARK   77  A    between atoms: _197  and  _199
REMARK   78  A    between atoms: _199  and  _200
REMARK   79  A    between atoms: _199  and  _202
REMARK   80  A    between atoms: _202  and  _203
REMARK   81  A    between atoms: _207  and  _208
REMARK   82  A    between atoms: _213  and  _215
REMARK   83  A    between atoms: _215  and  _216
REMARK   84  A    between atoms: _215  and  _218
REMARK   85  A    between atoms: _218  and  _219
REMARK   86  A    between atoms: _224  and  _226
REMARK   87  A    between atoms: _226  and  _227
REMARK   88  A    between atoms: _226  and  _229
REMARK   89  A    between atoms: _232  and  _234
REMARK   90  A    between atoms: _234  and  _235
REMARK   91  A    between atoms: _234  and  _237
REMARK   92  A    between atoms: _237  and  _238
REMARK   93  A    between atoms: _241  and  _243
REMARK   94  A    between atoms: _243  and  _244
REMARK   95  A    between atoms: _243  and  _246
REMARK   96  A    between atoms: _246  and  _247
REMARK   97  A    between atoms: _250  and  _252
REMARK   98  A    between atoms: _252  and  _253
REMARK   99  A    between atoms: _252  and  _255
REMARK  100  A    between atoms: _255  and  _256
REMARK  101  A    between atoms: _256  and  _257
REMARK  102  A    between atoms: _257  and  _258
REMARK  103  A    between atoms: _258  and  _259
REMARK  104  A    between atoms: _263  and  _265
REMARK  105  A    between atoms: _265  and  _266
REMARK  106  A    between atoms: _265  and  _268
REMARK  107  A    between atoms: _268  and  _269
REMARK  108  A    between atoms: _269  and  _270
REMARK  109  A    between atoms: _270  and  _271
REMARK  110  A    between atoms: _271  and  _272
REMARK  111  A    between atoms: _276  and  _278
REMARK  112  A    between atoms: _278  and  _279
REMARK  113  A    between atoms: _278  and  _281
REMARK  114  A    between atoms: _281  and  _282
REMARK  115  A    between atoms: _286  and  _287
REMARK  116  A    between atoms: _292  and  _294
REMARK  117  A    between atoms: _294  and  _295
REMARK  118  A    between atoms: _297  and  _299
REMARK  119  A    between atoms: _299  and  _300
REMARK  120  A    between atoms: _299  and  _302
REMARK  121  A    between atoms: _302  and  _303
REMARK  122  A    between atoms: _309  and  _310
REMARK  123  A    between atoms: _315  and  _317
REMARK  124  A    between atoms: _317  and  _318
REMARK  125  A    between atoms: _317  and  _320
REMARK  126  A    between atoms: _320  and  _321
REMARK  127  A    between atoms: _324  and  _326
REMARK  128  A    between atoms: _326  and  _327
REMARK  129  A    between atoms: _326  and  _329
REMARK  130  A    between atoms: _329  and  _330
REMARK  131  A    between atoms: _330  and  _331
REMARK  132  A    between atoms: _331  and  _332
REMARK  133  A    between atoms: _341  and  _343
REMARK  134  A    between atoms: _343  and  _344
REMARK  135  A    between atoms: _343  and  _346
REMARK  136  A    between atoms: _346  and  _347
REMARK  137  A    between atoms: _349  and  _351
REMARK  138  A    between atoms: _351  and  _352
REMARK  139  A    between atoms: _351  and  _354
REMARK  140  A    between atoms: _354  and  _355
REMARK  141  A    between atoms: _360  and  _361
REMARK  142  A    between atoms: _363  and  _365
REMARK  143  A    between atoms: _365  and  _366
REMARK  144  A    between atoms: _365  and  _368
REMARK  145  A    between atoms: _368  and  _369
REMARK  146  A    between atoms: _374  and  _376
REMARK  147  A    between atoms: _376  and  _377
REMARK  148  A    between atoms: _376  and  _379
REMARK  149  A    between atoms: _379  and  _380
REMARK  150  A    between atoms: _380  and  _381
REMARK  151  A    between atoms: _386  and  _388
REMARK  152  A    between atoms: _388  and  _389
REMARK  153  A    between atoms: _388  and  _391
REMARK  154  A    between atoms: _391  and  _392
REMARK  155  A    between atoms: _395  and  _397
REMARK  156  A    between atoms: _397  and  _398
REMARK  157  A    between atoms: _401  and  _403
REMARK  158  A    between atoms: _403  and  _404
REMARK  159  A    between atoms: _407  and  _409
REMARK  160  A    between atoms: _409  and  _410
REMARK  161  A    between atoms: _409  and  _412
REMARK  162  A    between atoms: _412  and  _413
REMARK  163  A    between atoms: _413  and  _414
REMARK  164  A    between atoms: _416  and  _418
REMARK  165  A    between atoms: _418  and  _419
REMARK  166  A    between atoms: _418  and  _421
REMARK  167  A    between atoms: _421  and  _422
REMARK  168  A    between atoms: _422  and  _423
REMARK  169  A    between atoms: _423  and  _424
REMARK  170  A    between atoms: _433  and  _435
REMARK  171  A    between atoms: _435  and  _436
REMARK  172  A    between atoms: _435  and  _438
REMARK  173  A    between atoms: _438  and  _439
REMARK  174  A    between atoms: _439  and  _440
REMARK  175  A    between atoms: _445  and  _447
REMARK  176  A    between atoms: _447  and  _448
REMARK  177  A    between atoms: _450  and  _452
REMARK  178  A    between atoms: _452  and  _453
REMARK  179  A    between atoms: _452  and  _455
REMARK  180  A    between atoms: _455  and  _456
REMARK  181  A    between atoms: _459  and  _461
REMARK  182  A    between atoms: _461  and  _462
REMARK  183  A    between atoms: _461  and  _464
REMARK  184  A    between atoms: _464  and  _465
REMARK  185  A    between atoms: _465  and  _466
REMARK  186  A    between atoms: _469  and  _471
REMARK  187  A    between atoms: _471  and  _472
REMARK  188  A    between atoms: _471  and  _474
REMARK  189  A    between atoms: _474  and  _475
REMARK  190  A    between atoms: _475  and  _476
REMARK  191  A    between atoms: _479  and  _481
REMARK  192  A    between atoms: _481  and  _482
REMARK  193  A    between atoms: _481  and  _484
REMARK  194  A    between atoms: _484  and  _485
REMARK  195  A    between atoms: _488  and  _490
REMARK  196  A    between atoms: _490  and  _491
REMARK  197  A    between atoms: _490  and  _493
REMARK  198  A    between atoms: _493  and  _494
REMARK  199  A    between atoms: _494  and  _495
REMARK  200  A    between atoms: _495  and  _496
REMARK  201  A    between atoms: _505  and  _507
REMARK  202  A    between atoms: _507  and  _508
REMARK  203  A    between atoms: _507  and  _510
REMARK  204  A    between atoms: _510  and  _511
REMARK  205  A    between atoms: _514  and  _516
REMARK  206  A    between atoms: _516  and  _517
REMARK  207  A    between atoms: _520  and  _522
REMARK  208  A    between atoms: _522  and  _523
REMARK  209  A    between atoms: _522  and  _525
REMARK  210  A    between atoms: _528  and  _530
REMARK  211  A    between atoms: _530  and  _531
REMARK  212  A    between atoms: _530  and  _533
REMARK  213  A    between atoms: _533  and  _534
REMARK  214  A    between atoms: _537  and  _539
REMARK  215  A    between atoms: _539  and  _540
REMARK  216  A    between atoms: _539  and  _542
REMARK  217  A    between atoms: _542  and  _543
REMARK  218  A    between atoms: _548  and  _549
REMARK                            x       y       z     vdW  Elec       q    Type
REMARK                         _______ _______ _______ _____ _____    ______ ____
ROOT
ATOM      1  CA  GLN A   7     -15.050  19.253 -14.728  0.00  0.00    +0.149 C 
ENDROOT
BRANCH   1   3
ATOM      2  C   ARG A   6     -15.704  17.194 -13.595  0.00  0.00    +0.241 C 
ATOM      3  N   GLN A   7     -14.875  18.215 -13.733  0.00  0.00    -0.297 N 
ATOM      4  H   GLN A   7     -14.056  18.276 -13.095  0.00  0.00    +0.150 HD
ATOM      5  O   ARG A   6     -16.760  17.124 -14.258  0.00  0.00    -0.273 OA
BRANCH   2   6
ATOM      6  CA  ARG A   6     -15.338  16.143 -12.566  0.00  0.00    +0.149 C 
BRANCH   6   8
ATOM      7  C   MET A   5     -13.464  15.159 -13.815  0.00  0.00    +0.241 C 
ATOM      8  N   ARG A   6     -13.927  15.677 -12.675  0.00  0.00    -0.297 N 
ATOM      9  H   ARG A   6     -13.295  15.756 -11.853  0.00  0.00    +0.150 HD
ATOM     10  O   MET A   5     -14.188  14.968 -14.812  0.00  0.00    -0.273 OA
BRANCH   7  11
ATOM     11  CA  MET A   5     -12.022  14.730 -13.848  0.00  0.00    +0.149 C 
BRANCH  11  13
ATOM     12  C   ALA A   4     -11.119  16.963 -13.967  0.00  0.00    +0.241 C 
ATOM     13  N   MET A   5     -11.195  15.818 -13.317  0.00  0.00    -0.297 N 
ATOM     14  H   MET A   5     -10.669  15.687 -12.429  0.00  0.00    +0.150 HD
ATOM     15  O   ALA A   4     -11.726  17.154 -15.033  0.00  0.00    -0.273 OA
BRANCH  12  16
ATOM     16  CA  ALA A   4     -10.232  18.036 -13.343  0.00  0.00    +0.149 C 
ATOM     17  CB  ALA A   4      -8.802  17.819 -13.704  0.00  0.00    +0.031 C 
BRANCH  16  19
ATOM     18  C   ALA A   3     -11.591  18.416 -11.352  0.00  0.00    +0.241 C 
ATOM     19  N   ALA A   4     -10.414  18.031 -11.872  0.00  0.00    -0.297 N 
ATOM     20  H   ALA A   4      -9.637  17.732 -11.248  0.00  0.00    +0.150 HD
ATOM     21  O   ALA A   3     -12.606  18.682 -12.067  0.00  0.00    -0.273 OA
BRANCH  18  22
ATOM     22  CA  ALA A   3     -11.698  18.429  -9.836  0.00  0.00    +0.149 C 
ATOM     23  CB  ALA A   3     -11.219  19.711  -9.282  0.00  0.00    +0.031 C 
BRANCH  22  25
ATOM     24  C   LEU A   2     -11.317  16.023  -9.513  0.00  0.00    +0.241 C 
ATOM     25  N   ALA A   3     -10.937  17.294  -9.246  0.00  0.00    -0.297 N 
ATOM     26  H   ALA A   3     -10.118  17.477  -8.632  0.00  0.00    +0.150 HD
ATOM     27  O   LEU A   2     -12.259  15.765 -10.309  0.00  0.00    -0.273 OA
BRANCH  24  28
ATOM     28  CA  LEU A   2     -10.500  14.878  -8.880  0.00  0.00    +0.149 C 
BRANCH  28  30
ATOM     29  C   GLN A   1      -8.466  15.333 -10.142  0.00  0.00    +0.238 C 
ATOM     30  N   LEU A   2      -9.077  15.226  -8.945  0.00  0.00    -0.297 N 
ATOM     31  H   LEU A   2      -8.540  15.390  -8.069  0.00  0.00    +0.150 HD
ATOM     32  O   GLN A   1      -9.072  15.123 -11.190  0.00  0.00    -0.274 OA
BRANCH  29  33
ATOM     33  CA  GLN A   1      -7.009  15.769 -10.159  0.00  0.00    +0.145 C 
BRANCH  33  34
ATOM     34  N   GLN A   1      -6.797  16.850  -9.170  0.00  0.00    -0.238 NA
ATOM     35  H   GLN A   1      -6.274  16.647  -8.294  0.00  0.00    +0.142 HD
ENDBRANCH  33  34
BRANCH  33  36
ATOM     36  CB  GLN A   1      -6.114  14.564  -9.801  0.00  0.00    +0.036 C 
BRANCH  36  37
ATOM     37  CG  GLN A   1      -6.351  13.350 -10.711  0.00  0.00    +0.087 C 
BRANCH  37  38
ATOM     38  CD  GLN A   1      -5.296  12.287 -10.544  0.00  0.00    +0.219 C 
ATOM     39  OE1 GLN A   1      -4.681  12.157  -9.458  0.00  0.00    -0.275 OA
ATOM     40  NE2 GLN A   1      -5.080  11.484 -11.629  0.00  0.00    -0.329 N 
ATOM     41 HE21 GLN A   1      -4.376  10.720 -11.578  0.00  0.00    +0.145 HD
ATOM     42 HE22 GLN A   1      -5.619  11.637 -12.505  0.00  0.00    +0.145 HD
ENDBRANCH  37  38
ENDBRANCH  36  37
ENDBRANCH  33  36
ENDBRANCH  29  33
ENDBRANCH  28  30
BRANCH  28  43
ATOM     43  CB  LEU A   2     -10.860  14.669  -7.429  0.00  0.00    +0.029 C 
BRANCH  43  44
ATOM     44  CG  LEU A   2     -12.338  14.400  -7.152  0.00  0.00    +0.002 C 
ATOM     45  CD2 LEU A   2     -12.625  14.122  -5.652  0.00  0.00    +0.000 C 
ATOM     46  CD1 LEU A   2     -12.891  13.250  -8.065  0.00  0.00    +0.000 C 
ENDBRANCH  43  44
ENDBRANCH  28  43
ENDBRANCH  24  28
ENDBRANCH  22  25
ENDBRANCH  18  22
ENDBRANCH  16  19
ENDBRANCH  12  16
ENDBRANCH  11  13
BRANCH  11  47
ATOM     47  CB  MET A   5     -11.806  13.496 -12.982  0.00  0.00    +0.041 C 
BRANCH  47  48
ATOM     48  CG  MET A   5     -12.696  12.297 -13.366  0.00  0.00    +0.060 C 
BRANCH  48  49
ATOM     49  SD  MET A   5     -12.367  11.561 -14.959  0.00  0.00    -0.139 S 
ATOM     50  CE  MET A   5     -10.934  10.570 -14.579  0.00  0.00    +0.069 C 
ENDBRANCH  48  49
ENDBRANCH  47  48
ENDBRANCH  11  47
ENDBRANCH   7  11
ENDBRANCH   6   8
BRANCH   6  51
ATOM     51  CB  ARG A   6     -15.684  16.634 -11.169  0.00  0.00    +0.033 C 
BRANCH  51  52
ATOM     52  CG  ARG A   6     -15.686  15.544 -10.158  0.00  0.00    +0.045 C 
BRANCH  52  53
ATOM     53  CD  ARG A   6     -16.199  16.198  -8.899  0.00  0.00    +0.174 C 
BRANCH  53  54
ATOM     54  NE  ARG A   6     -16.022  15.478  -7.666  0.00  0.00    -0.265 N 
ATOM     55  HE  ARG A   6     -15.283  15.832  -7.026  0.00  0.00    +0.259 HD
ATOM     56  CZ  ARG A   6     -16.695  14.415  -7.256  0.00  0.00    +0.342 C 
ATOM     57  NH2 ARG A   6     -16.377  13.940  -6.020  0.00  0.00    -0.292 N 
ATOM     58 HH21 ARG A   6     -15.641  14.410  -5.456  0.00  0.00    +0.255 HD
ATOM     59 HH22 ARG A   6     -16.870  13.107  -5.640  0.00  0.00    +0.255 HD
ATOM     60  NH1 ARG A   6     -17.637  13.838  -8.044  0.00  0.00    -0.292 N 
ATOM     61 HH11 ARG A   6     -18.157  13.003  -7.706  0.00  0.00    +0.255 HD
ATOM     62 HH12 ARG A   6     -17.839  14.231  -8.986  0.00  0.00    +0.255 HD
ENDBRANCH  53  54
ENDBRANCH  52  53
ENDBRANCH  51  52
ENDBRANCH   6  51
ENDBRANCH   2   6
ENDBRANCH   1   3
BRANCH   1  63
ATOM     63  C   GLN A   7     -15.072  18.641 -16.186  0.00  0.00    +0.241 C 
ATOM     64  N   GLY A   8     -14.158  17.705 -16.501  0.00  0.00    -0.295 N 
ATOM     65  H   GLY A   8     -13.450  17.458 -15.780  0.00  0.00    +0.150 HD
ATOM     66  O   GLN A   7     -15.924  19.032 -16.995  0.00  0.00    -0.273 OA
BRANCH  64  67
ATOM     67  CA  GLY A   8     -14.092  17.014 -17.782  0.00  0.00    +0.176 C 
BRANCH  67  68
ATOM     68  C   GLY A   8     -15.370  16.262 -18.069  0.00  0.00    +0.243 C 
ATOM     69  N   LEU A   9     -15.929  15.639 -17.061  0.00  0.00    -0.297 N 
ATOM     70  H   LEU A   9     -15.492  15.647 -16.117  0.00  0.00    +0.150 HD
ATOM     71  O   GLY A   8     -15.933  16.362 -19.184  0.00  0.00    -0.273 OA
BRANCH  69  72
ATOM     72  CA  LEU A   9     -17.187  14.931 -17.303  0.00  0.00    +0.149 C 
BRANCH  72  73
ATOM     73  C   LEU A   9     -18.349  15.872 -17.515  0.00  0.00    +0.241 C 
ATOM     74  N   GLU A  10     -18.440  16.965 -16.760  0.00  0.00    -0.297 N 
ATOM     75  H   GLU A  10     -17.752  17.135 -15.998  0.00  0.00    +0.150 HD
ATOM     76  O   LEU A   9     -19.166  15.610 -18.390  0.00  0.00    -0.273 OA
BRANCH  74  77
ATOM     77  CA  GLU A  10     -19.527  17.936 -17.013  0.00  0.00    +0.149 C 
BRANCH  77  78
ATOM     78  C   GLU A  10     -19.388  18.482 -18.428  0.00  0.00    +0.241 C 
ATOM     79  N   GLU A  11     -18.147  18.698 -18.868  0.00  0.00    -0.297 N 
ATOM     80  H   GLU A  11     -17.339  18.490 -18.246  0.00  0.00    +0.150 HD
ATOM     81  O   GLU A  10     -20.393  18.779 -19.108  0.00  0.00    -0.273 OA
BRANCH  79  82
ATOM     82  CA  GLU A  11     -17.907  19.220 -20.205  0.00  0.00    +0.149 C 
BRANCH  82  83
ATOM     83  C   GLU A  11     -18.410  18.229 -21.269  0.00  0.00    +0.241 C 
ATOM     84  N   LEU A  12     -18.071  16.957 -21.102  0.00  0.00    -0.297 N 
ATOM     85  H   LEU A  12     -17.501  16.677 -20.278  0.00  0.00    +0.150 HD
ATOM     86  O   GLU A  11     -19.109  18.601 -22.232  0.00  0.00    -0.273 OA
BRANCH  84  87
ATOM     87  CA  LEU A  12     -18.498  15.941 -22.078  0.00  0.00    +0.149 C 
BRANCH  87  88
ATOM     88  C   LEU A  12     -19.991  15.971 -22.114  0.00  0.00    +0.241 C 
ATOM     89  N   ARG A  13     -20.647  16.095 -20.956  0.00  0.00    -0.298 N 
ATOM     90  H   ARG A  13     -20.120  16.119 -20.060  0.00  0.00    +0.150 HD
ATOM     91  O   LEU A  12     -20.570  15.850 -23.184  0.00  0.00    -0.273 OA
BRANCH  89  92
ATOM     92  CA  ARG A  13     -22.116  16.198 -20.950  0.00  0.00    +0.137 C 
BRANCH  92  93
ATOM     93  C   ARG A  13     -22.644  17.401 -21.691  0.00  0.00    +0.227 C 
ATOM     94  O   ARG A  13     -23.644  17.315 -22.453  0.00  0.00    -0.286 OA
ENDBRANCH  92  93
BRANCH  92  95
ATOM     95  CB  ARG A  13     -22.640  16.282 -19.537  0.00  0.00    +0.031 C 
BRANCH  95  96
ATOM     96  CG  ARG A  13     -22.428  15.047 -18.796  0.00  0.00    +0.045 C 
BRANCH  96  97
ATOM     97  CD  ARG A  13     -23.438  14.905 -17.645  0.00  0.00    +0.174 C 
BRANCH  97  98
ATOM     98  NE  ARG A  13     -22.999  14.010 -16.557  0.00  0.00    -0.265 N 
ATOM     99  HE  ARG A  13     -23.575  14.026 -15.691  0.00  0.00    +0.259 HD
ATOM    100  CZ  ARG A  13     -21.946  13.177 -16.550  0.00  0.00    +0.342 C 
ATOM    101  NH2 ARG A  13     -21.736  12.457 -15.470  0.00  0.00    -0.292 N 
ATOM    102 HH21 ARG A  13     -22.376  12.543 -14.655  0.00  0.00    +0.255 HD
ATOM    103 HH22 ARG A  13     -20.929  11.802 -15.431  0.00  0.00    +0.255 HD
ATOM    104  NH1 ARG A  13     -21.099  13.054 -17.580  0.00  0.00    -0.292 N 
ATOM    105 HH11 ARG A  13     -20.299  12.392 -17.519  0.00  0.00    +0.255 HD
ATOM    106 HH12 ARG A  13     -21.241  13.620 -18.441  0.00  0.00    +0.255 HD
ENDBRANCH  97  98
ENDBRANCH  96  97
ENDBRANCH  95  96
ENDBRANCH  92  95
ENDBRANCH  89  92
ENDBRANCH  87  88
BRANCH  87 107
ATOM    107  CB  LEU A  12     -17.997  14.560 -21.630  0.00  0.00    +0.029 C 
BRANCH 107 108
ATOM    108  CG  LEU A  12     -16.514  14.208 -21.888  0.00  0.00    +0.002 C 
ATOM    109  CD2 LEU A  12     -16.119  12.891 -21.236  0.00  0.00    +0.000 C 
ATOM    110  CD1 LEU A  12     -16.166  14.116 -23.362  0.00  0.00    +0.000 C 
ENDBRANCH 107 108
ENDBRANCH  87 107
ENDBRANCH  84  87
ENDBRANCH  82  83
BRANCH  82 111
ATOM    111  CB  GLU A  11     -16.445  19.512 -20.411  0.00  0.00    +0.041 C 
BRANCH 111 112
ATOM    112  CG  GLU A  11     -16.047  20.816 -19.706  0.00  0.00    +0.116 C 
BRANCH 112 113
ATOM    113  CD  GLU A  11     -14.561  21.068 -19.716  0.00  0.00    +0.365 C 
ATOM    114  OE2 GLU A  11     -14.122  22.060 -19.060  0.00  0.00    -0.246 OA
ATOM    115  OE1 GLU A  11     -13.829  20.274 -20.365  0.00  0.00    -0.246 OA
ENDBRANCH 112 113
ENDBRANCH 111 112
ENDBRANCH  82 111
ENDBRANCH  79  82
ENDBRANCH  77  78
BRANCH  77 116
ATOM    116  CB  GLU A  10     -19.454  19.107 -16.053  0.00  0.00    +0.041 C 
BRANCH 116 117
ATOM    117  CG  GLU A  10     -19.938  18.782 -14.670  0.00  0.00    +0.116 C 
BRANCH 117 118
ATOM    118  CD  GLU A  10     -19.599  19.884 -13.672  0.00  0.00    +0.365 C 
ATOM    119  OE2 GLU A  10     -18.874  19.591 -12.681  0.00  0.00    -0.246 OA
ATOM    120  OE1 GLU A  10     -20.044  21.043 -13.888  0.00  0.00    -0.246 OA
ENDBRANCH 117 118
ENDBRANCH 116 117
ENDBRANCH  77 116
ENDBRANCH  74  77
ENDBRANCH  72  73
BRANCH  72 121
ATOM    121  CB  LEU A   9     -17.497  14.023 -16.113  0.00  0.00    +0.029 C 
BRANCH 121 122
ATOM    122  CG  LEU A   9     -16.543  12.837 -16.026  0.00  0.00    +0.002 C 
ATOM    123  CD2 LEU A   9     -16.615  12.231 -14.603  0.00  0.00    +0.000 C 
ATOM    124  CD1 LEU A   9     -16.920  11.844 -17.145  0.00  0.00    +0.000 C 
ENDBRANCH 121 122
ENDBRANCH  72 121
ENDBRANCH  69  72
ENDBRANCH  67  68
ENDBRANCH  64  67
ENDBRANCH   1  63
BRANCH   1 125
ATOM    125  CB  GLN A   7     -13.999  20.354 -14.485  0.00  0.00    +0.039 C 
BRANCH 125 126
ATOM    126  CG  GLN A   7     -14.469  21.397 -13.404  0.00  0.00    +0.087 C 
BRANCH 126 127
ATOM    127  CD  GLN A   7     -13.895  21.277 -11.951  0.00  0.00    +0.219 C 
ATOM    128  OE1 GLN A   7     -14.334  20.385 -11.167  0.00  0.00    -0.275 OA
ATOM    129  NE2 GLN A   7     -12.970  22.257 -11.546  0.00  0.00    -0.329 N 
ATOM    130 HE21 GLN A   7     -12.619  22.268 -10.567  0.00  0.00    +0.145 HD
ATOM    131 HE22 GLN A   7     -12.637  22.970 -12.226  0.00  0.00    +0.145 HD
ENDBRANCH 126 127
ENDBRANCH 125 126
ENDBRANCH   1 125
TORSDOF 55
REMARK  Name = ../refined-set-2016/2hw2/2hw2_pocket.pdb
REMARK  218 active torsions:
REMARK  status: ('A' for Active; 'I' for Inactive)
REMARK    1  A    between atoms: _2  and  _3
REMARK    2  A    between atoms: _8  and  _10
REMARK    3  A    between atoms: _10  and  _11
REMARK    4  A    between atoms: _10  and  _13
REMARK    5  A    between atoms: _13  and  _14
REMARK    6  A    between atoms: _20  and  _22
REMARK    7  A    between atoms: _22  and  _23
REMARK    8  A    between atoms: _25  and  _27
REMARK    9  A    between atoms: _27  and  _28
REMARK   10  A    between atoms: _27  and  _30
REMARK   11  A    between atoms: _30  and  _31
REMARK   12  A    between atoms: _33  and  _35
REMARK   13  A    between atoms: _35  and  _36
REMARK   14  A    between atoms: _35  and  _38
REMARK   15  A    between atoms: _38  and  _39
REMARK   16  A    between atoms: _44  and  _46
REMARK   17  A    between atoms: _46  and  _47
REMARK   18  A    between atoms: _46  and  _49
REMARK   19  A    between atoms: _49  and  _50
REMARK   20  A    between atoms: _56  and  _58
REMARK   21  A    between atoms: _58  and  _59
REMARK   22  A    between atoms: _58  and  _61
REMARK   23  A    between atoms: _61  and  _62
REMARK   24  A    between atoms: _62  and  _63
REMARK   25  A    between atoms: _66  and  _68
REMARK   26  A    between atoms: _68  and  _69
REMARK   27  A    between atoms: _68  and  _71
REMARK   28  A    between atoms: _71  and  _72
REMARK   29  A    between atoms: _72  and  _73
REMARK   30  A    between atoms: _75  and  _77
REMARK   31  A    between atoms: _77  and  _78
REMARK   32  A    between atoms: _77  and  _80
REMARK   33  A    between atoms: _80  and  _81
REMARK   34  A    between atoms: _86  and  _87
REMARK   35  A    between atoms: _89  and  _91
REMARK   36  A    between atoms: _91  and  _92
REMARK   37  A    between atoms: _91  and  _94
REMARK   38  A    between atoms: _94  and  _95
REMARK   39  A    between atoms: _98  and  _100
REMARK   40  A    between atoms: _100  and  _101
REMARK   41  A    between atoms: _100  and  _103
REMARK   42  A    between atoms: _103  and  _104
REMARK   43  A    between atoms: _107  and  _109
REMARK   44  A    between atoms: _109  and  _110
REMARK   45  A    between atoms: _109  and  _112
REMARK   46  A    between atoms: _112  and  _113
REMARK   47  A    between atoms: _116  and  _118
REMARK   48  A    between atoms: _118  and  _119
REMARK   49  A    between atoms: _118  and  _121
REMARK   50  A    between atoms: _121  and  _122
REMARK   51  A    between atoms: _125  and  _127
REMARK   52  A    between atoms: _127  and  _128
REMARK   53  A    between atoms: _131  and  _133
REMARK   54  A    between atoms: _133  and  _134
REMARK   55  A    between atoms: _137  and  _139
REMARK   56  A    between atoms: _139  and  _140
REMARK   57  A    between atoms: _139  and  _142
REMARK   58  A    between atoms: _145  and  _147
REMARK   59  A    between atoms: _147  and  _148
REMARK   60  A    between atoms: _147  and  _150
REMARK   61  A    between atoms: _150  and  _151
REMARK   62  A    between atoms: _161  and  _163
REMARK   63  A    between atoms: _163  and  _164
REMARK   64  A    between atoms: _166  and  _168
REMARK   65  A    between atoms: _168  and  _169
REMARK   66  A    between atoms: _172  and  _174
REMARK   67  A    between atoms: _174  and  _175
REMARK   68  A    between atoms: _174  and  _177
REMARK   69  A    between atoms: _177  and  _178
REMARK   70  A    between atoms: _178  and  _179
REMARK   71  A    between atoms: _182  and  _184
REMARK   72  A    between atoms: _184  and  _185
REMARK   73  A    between atoms: _184  and  _187
REMARK   74  A    between atoms: _187  and  _188
REMARK   75  A    between atoms: _191  and  _193
REMARK   76  A    between atoms: _193  and  _194
REMARK   77  A    between atoms: _197  and  _199
REMARK   78  A    between atoms: _199  and  _200
REMARK   79  A    between atoms: _199  and  _202
REMARK   80  A    between atoms: _202  and  _203
REMARK   81  A    between atoms: _207  and  _208
REMARK   82  A    between atoms: _213  and  _215
REMARK   83  A    between atoms: _215  and  _216
REMARK   84  A    between atoms: _215  and  _218
REMARK   85  A    between atoms: _218  and  _219
REMARK   86  A    between atoms: _224  and  _226
REMARK   87  A    between atoms: _226  and  _227
REMARK   88  A    between atoms: _226  and  _229
REMARK   89  A    between atoms: _232  and  _234
REMARK   90  A    between atoms: _234  and  _235
REMARK   91  A    between atoms: _234  and  _237
REMARK   92  A    between atoms: _237  and  _238
REMARK   93  A    between atoms: _241  and  _243
REMARK   94  A    between atoms: _243  and  _244
REMARK   95  A    between atoms: _243  and  _246
REMARK   96  A    between atoms: _246  and  _247
REMARK   97  A    between atoms: _250  and  _252
REMARK   98  A    between atoms: _252  and  _253
REMARK   99  A    between atoms: _252  and  _255
REMARK  100  A    between atoms: _255  and  _256
REMARK  101  A    between atoms: _256  and  _257
REMARK  102  A    between atoms: _257  and  _258
REMARK  103  A    between atoms: _258  and  _259
REMARK  104  A    between atoms: _263  and  _265
REMARK  105  A    between atoms: _265  and  _266
REMARK  106  A    between atoms: _265  and  _268
REMARK  107  A    between atoms: _268  and  _269
REMARK  108  A    between atoms: _269  and  _270
REMARK  109  A    between atoms: _270  and  _271
REMARK  110  A    between atoms: _271  and  _272
REMARK  111  A    between atoms: _276  and  _278
REMARK  112  A    between atoms: _278  and  _279
REMARK  113  A    between atoms: _278  and  _281
REMARK  114  A    between atoms: _281  and  _282
REMARK  115  A    between atoms: _286  and  _287
REMARK  116  A    between atoms: _292  and  _294
REMARK  117  A    between atoms: _294  and  _295
REMARK  118  A    between atoms: _297  and  _299
REMARK  119  A    between atoms: _299  and  _300
REMARK  120  A    between atoms: _299  and  _302
REMARK  121  A    between atoms: _302  and  _303
REMARK  122  A    between atoms: _309  and  _310
REMARK  123  A    between atoms: _315  and  _317
REMARK  124  A    between atoms: _317  and  _318
REMARK  125  A    between atoms: _317  and  _320
REMARK  126  A    between atoms: _320  and  _321
REMARK  127  A    between atoms: _324  and  _326
REMARK  128  A    between atoms: _326  and  _327
REMARK  129  A    between atoms: _326  and  _329
REMARK  130  A    between atoms: _329  and  _330
REMARK  131  A    between atoms: _330  and  _331
REMARK  132  A    between atoms: _331  and  _332
REMARK  133  A    between atoms: _341  and  _343
REMARK  134  A    between atoms: _343  and  _344
REMARK  135  A    between atoms: _343  and  _346
REMARK  136  A    between atoms: _346  and  _347
REMARK  137  A    between atoms: _349  and  _351
REMARK  138  A    between atoms: _351  and  _352
REMARK  139  A    between atoms: _351  and  _354
REMARK  140  A    between atoms: _354  and  _355
REMARK  141  A    between atoms: _360  and  _361
REMARK  142  A    between atoms: _363  and  _365
REMARK  143  A    between atoms: _365  and  _366
REMARK  144  A    between atoms: _365  and  _368
REMARK  145  A    between atoms: _368  and  _369
REMARK  146  A    between atoms: _374  and  _376
REMARK  147  A    between atoms: _376  and  _377
REMARK  148  A    between atoms: _376  and  _379
REMARK  149  A    between atoms: _379  and  _380
REMARK  150  A    between atoms: _380  and  _381
REMARK  151  A    between atoms: _386  and  _388
REMARK  152  A    between atoms: _388  and  _389
REMARK  153  A    between atoms: _388  and  _391
REMARK  154  A    between atoms: _391  and  _392
REMARK  155  A    between atoms: _395  and  _397
REMARK  156  A    between atoms: _397  and  _398
REMARK  157  A    between atoms: _401  and  _403
REMARK  158  A    between atoms: _403  and  _404
REMARK  159  A    between atoms: _407  and  _409
REMARK  160  A    between atoms: _409  and  _410
REMARK  161  A    between atoms: _409  and  _412
REMARK  162  A    between atoms: _412  and  _413
REMARK  163  A    between atoms: _413  and  _414
REMARK  164  A    between atoms: _416  and  _418
REMARK  165  A    between atoms: _418  and  _419
REMARK  166  A    between atoms: _418  and  _421
REMARK  167  A    between atoms: _421  and  _422
REMARK  168  A    between atoms: _422  and  _423
REMARK  169  A    between atoms: _423  and  _424
REMARK  170  A    between atoms: _433  and  _435
REMARK  171  A    between atoms: _435  and  _436
REMARK  172  A    between atoms: _435  and  _438
REMARK  173  A    between atoms: _438  and  _439
REMARK  174  A    between atoms: _439  and  _440
REMARK  175  A    between atoms: _445  and  _447
REMARK  176  A    between atoms: _447  and  _448
REMARK  177  A    between atoms: _450  and  _452
REMARK  178  A    between atoms: _452  and  _453
REMARK  179  A    between atoms: _452  and  _455
REMARK  180  A    between atoms: _455  and  _456
REMARK  181  A    between atoms: _459  and  _461
REMARK  182  A    between atoms: _461  and  _462
REMARK  183  A    between atoms: _461  and  _464
REMARK  184  A    between atoms: _464  and  _465
REMARK  185  A    between atoms: _465  and  _466
REMARK  186  A    between atoms: _469  and  _471
REMARK  187  A    between atoms: _471  and  _472
REMARK  188  A    between atoms: _471  and  _474
REMARK  189  A    between atoms: _474  and  _475
REMARK  190  A    between atoms: _475  and  _476
REMARK  191  A    between atoms: _479  and  _481
REMARK  192  A    between atoms: _481  and  _482
REMARK  193  A    between atoms: _481  and  _484
REMARK  194  A    between atoms: _484  and  _485
REMARK  195  A    between atoms: _488  and  _490
REMARK  196  A    between atoms: _490  and  _491
REMARK  197  A    between atoms: _490  and  _493
REMARK  198  A    between atoms: _493  and  _494
REMARK  199  A    between atoms: _494  and  _495
REMARK  200  A    between atoms: _495  and  _496
REMARK  201  A    between atoms: _505  and  _507
REMARK  202  A    between atoms: _507  and  _508
REMARK  203  A    between atoms: _507  and  _510
REMARK  204  A    between atoms: _510  and  _511
REMARK  205  A    between atoms: _514  and  _516
REMARK  206  A    between atoms: _516  and  _517
REMARK  207  A    between atoms: _520  and  _522
REMARK  208  A    between atoms: _522  and  _523
REMARK  209  A    between atoms: _522  and  _525
REMARK  210  A    between atoms: _528  and  _530
REMARK  211  A    between atoms: _530  and  _531
REMARK  212  A    between atoms: _530  and  _533
REMARK  213  A    between atoms: _533  and  _534
REMARK  214  A    between atoms: _537  and  _539
REMARK  215  A    between atoms: _539  and  _540
REMARK  216  A    between atoms: _539  and  _542
REMARK  217  A    between atoms: _542  and  _543
REMARK  218  A    between atoms: _548  and  _549
REMARK                            x       y       z     vdW  Elec       q    Type
REMARK                         _______ _______ _______ _____ _____    ______ ____
ROOT
ATOM      1  C   VAL A   3     -21.927   7.136 -22.843  0.00  0.00    +0.241 C 
ATOM      2  N   ILE A   4     -22.993   6.623 -22.193  0.00  0.00    -0.297 N 
ATOM      3  H   ILE A   4     -23.939   6.983 -22.433  0.00  0.00    +0.150 HD
ATOM      4  O   VAL A   3     -20.730   6.850 -22.516  0.00  0.00    -0.273 OA
ENDROOT
BRANCH   2   5
ATOM      5  CA  ILE A   4     -22.882   5.574 -21.157  0.00  0.00    +0.149 C 
BRANCH   5   6
ATOM      6  C   ILE A   4     -23.247   4.222 -21.778  0.00  0.00    +0.241 C 
ATOM      7  N   TYR A   5     -22.286   3.291 -21.814  0.00  0.00    -0.298 N 
ATOM      8  H   TYR A   5     -21.317   3.540 -21.530  0.00  0.00    +0.150 HD
ATOM      9  O   ILE A   4     -24.392   4.018 -22.260  0.00  0.00    -0.273 OA
BRANCH   7  10
ATOM     10  CA  TYR A   5     -22.581   1.951 -22.241  0.00  0.00    +0.141 C 
BRANCH  10  11
ATOM     11  C   TYR A   5     -22.988   1.117 -21.053  0.00  0.00    +0.227 C 
ATOM     12  O   TYR A   5     -22.238   1.006 -20.055  0.00  0.00    -0.286 OA
ENDBRANCH  10  11
BRANCH  10  13
ATOM     13  CB  TYR A   5     -21.367   1.357 -22.983  0.00  0.00    +0.054 C 
BRANCH  13  14
ATOM     14  CG  TYR A   5     -21.193   2.029 -24.319  0.00  0.00    -0.020 A 
ATOM     15  CD2 TYR A   5     -20.194   2.956 -24.529  0.00  0.00    -0.001 A 
ATOM     16  CE2 TYR A   5     -20.030   3.585 -25.766  0.00  0.00    +0.036 A 
ATOM     17  CZ  TYR A   5     -20.862   3.258 -26.802  0.00  0.00    +0.134 A 
ATOM     18  CE1 TYR A   5     -21.861   2.334 -26.648  0.00  0.00    +0.036 A 
ATOM     19  CD1 TYR A   5     -22.044   1.734 -25.376  0.00  0.00    -0.001 A 
BRANCH  17  20
ATOM     20  OH  TYR A   5     -20.722   3.870 -28.037  0.00  0.00    -0.506 OA
ATOM     21  HH  TYR A   5     -19.967   4.509 -28.004  0.00  0.00    +0.292 HD
ENDBRANCH  17  20
ENDBRANCH  13  14
ENDBRANCH  10  13
ENDBRANCH   7  10
ENDBRANCH   5   6
BRANCH   5  22
ATOM     22  CB  ILE A   4     -23.805   5.874 -19.956  0.00  0.00    +0.027 C 
ATOM     23  CG2 ILE A   4     -23.886   4.595 -19.027  0.00  0.00    +0.002 C 
BRANCH  22  24
ATOM     24  CG1 ILE A   4     -23.187   6.997 -19.038  0.00  0.00    +0.002 C 
ATOM     25  CD1 ILE A   4     -23.269   8.374 -19.484  0.00  0.00    +0.000 C 
ENDBRANCH  22  24
ENDBRANCH   5  22
ENDBRANCH   2   5
BRANCH   1  26
ATOM     26  CA  VAL A   3     -22.171   8.182 -23.930  0.00  0.00    +0.149 C 
BRANCH  26  29
ATOM     27  C   ALA A   2     -21.628  10.111 -22.573  0.00  0.00    +0.241 C 
ATOM     28  O   ALA A   2     -22.508   9.843 -21.724  0.00  0.00    -0.273 OA
ATOM     29  N   VAL A   3     -21.328   9.321 -23.639  0.00  0.00    -0.297 N 
ATOM     30  H   VAL A   3     -20.504   9.533 -24.237  0.00  0.00    +0.150 HD
BRANCH  27  31
ATOM     31  CA  ALA A   2     -20.812  11.396 -22.405  0.00  0.00    +0.149 C 
ATOM     32  CB  ALA A   2     -21.193  12.093 -21.107  0.00  0.00    +0.031 C 
BRANCH  31  34
ATOM     33  C   LEU A   1     -20.178  12.181 -24.623  0.00  0.00    +0.238 C 
ATOM     34  N   ALA A   2     -20.980  12.300 -23.576  0.00  0.00    -0.297 N 
ATOM     35  H   ALA A   2     -21.726  13.024 -23.572  0.00  0.00    +0.150 HD
ATOM     36  O   LEU A   1     -19.376  11.249 -24.702  0.00  0.00    -0.274 OA
BRANCH  33  37
ATOM     37  CA  LEU A   1     -20.325  13.253 -25.759  0.00  0.00    +0.145 C 
BRANCH  37  38
ATOM     38  N   LEU A   1     -21.311  14.313 -25.421  0.00  0.00    -0.238 NA
ATOM     39  H   LEU A   1     -21.083  14.972 -24.649  0.00  0.00    +0.142 HD
ENDBRANCH  37  38
BRANCH  37  40
ATOM     40  CB  LEU A   1     -18.947  13.879 -26.121  0.00  0.00    +0.026 C 
BRANCH  40  41
ATOM     41  CG  LEU A   1     -18.699  14.709 -27.412  0.00  0.00    +0.002 C 
ATOM     42  CD2 LEU A   1     -19.914  15.462 -27.860  0.00  0.00    +0.000 C 
ATOM     43  CD1 LEU A   1     -18.321  13.721 -28.526  0.00  0.00    +0.000 C 
ENDBRANCH  40  41
ENDBRANCH  37  40
ENDBRANCH  33  37
ENDBRANCH  31  34
ENDBRANCH  27  31
ENDBRANCH  26  29
BRANCH  26  44
ATOM     44  CB  VAL A   3     -21.849   7.588 -25.291  0.00  0.00    +0.027 C 
ATOM     45  CG2 VAL A   3     -22.673   6.368 -25.540  0.00  0.00    +0.002 C 
ATOM     46  CG1 VAL A   3     -22.229   8.568 -26.394  0.00  0.00    +0.002 C 
ENDBRANCH  26  44
ENDBRANCH   1  26
TORSDOF 18
REMARK  Name = ../refined-set-2016/2hw2/2hw2_pocket.pdb
REMARK  218 active torsions:
REMARK  status: ('A' for Active; 'I' for Inactive)
REMARK    1  A    between atoms: _2  and  _3
REMARK    2  A    between atoms: _8  and  _10
REMARK    3  A    between atoms: _10  and  _11
REMARK    4  A    between atoms: _10  and  _13
REMARK    5  A    between atoms: _13  and  _14
REMARK    6  A    between atoms: _20  and  _22
REMARK    7  A    between atoms: _22  and  _23
REMARK    8  A    between atoms: _25  and  _27
REMARK    9  A    between atoms: _27  and  _28
REMARK   10  A    between atoms: _27  and  _30
REMARK   11  A    between atoms: _30  and  _31
REMARK   12  A    between atoms: _33  and  _35
REMARK   13  A    between atoms: _35  and  _36
REMARK   14  A    between atoms: _35  and  _38
REMARK   15  A    between atoms: _38  and  _39
REMARK   16  A    between atoms: _44  and  _46
REMARK   17  A    between atoms: _46  and  _47
REMARK   18  A    between atoms: _46  and  _49
REMARK   19  A    between atoms: _49  and  _50
REMARK   20  A    between atoms: _56  and  _58
REMARK   21  A    between atoms: _58  and  _59
REMARK   22  A    between atoms: _58  and  _61
REMARK   23  A    between atoms: _61  and  _62
REMARK   24  A    between atoms: _62  and  _63
REMARK   25  A    between atoms: _66  and  _68
REMARK   26  A    between atoms: _68  and  _69
REMARK   27  A    between atoms: _68  and  _71
REMARK   28  A    between atoms: _71  and  _72
REMARK   29  A    between atoms: _72  and  _73
REMARK   30  A    between atoms: _75  and  _77
REMARK   31  A    between atoms: _77  and  _78
REMARK   32  A    between atoms: _77  and  _80
REMARK   33  A    between atoms: _80  and  _81
REMARK   34  A    between atoms: _86  and  _87
REMARK   35  A    between atoms: _89  and  _91
REMARK   36  A    between atoms: _91  and  _92
REMARK   37  A    between atoms: _91  and  _94
REMARK   38  A    between atoms: _94  and  _95
REMARK   39  A    between atoms: _98  and  _100
REMARK   40  A    between atoms: _100  and  _101
REMARK   41  A    between atoms: _100  and  _103
REMARK   42  A    between atoms: _103  and  _104
REMARK   43  A    between atoms: _107  and  _109
REMARK   44  A    between atoms: _109  and  _110
REMARK   45  A    between atoms: _109  and  _112
REMARK   46  A    between atoms: _112  and  _113
REMARK   47  A    between atoms: _116  and  _118
REMARK   48  A    between atoms: _118  and  _119
REMARK   49  A    between atoms: _118  and  _121
REMARK   50  A    between atoms: _121  and  _122
REMARK   51  A    between atoms: _125  and  _127
REMARK   52  A    between atoms: _127  and  _128
REMARK   53  A    between atoms: _131  and  _133
REMARK   54  A    between atoms: _133  and  _134
REMARK   55  A    between atoms: _137  and  _139
REMARK   56  A    between atoms: _139  and  _140
REMARK   57  A    between atoms: _139  and  _142
REMARK   58  A    between atoms: _145  and  _147
REMARK   59  A    between atoms: _147  and  _148
REMARK   60  A    between atoms: _147  and  _150
REMARK   61  A    between atoms: _150  and  _151
REMARK   62  A    between atoms: _161  and  _163
REMARK   63  A    between atoms: _163  and  _164
REMARK   64  A    between atoms: _166  and  _168
REMARK   65  A    between atoms: _168  and  _169
REMARK   66  A    between atoms: _172  and  _174
REMARK   67  A    between atoms: _174  and  _175
REMARK   68  A    between atoms: _174  and  _177
REMARK   69  A    between atoms: _177  and  _178
REMARK   70  A    between atoms: _178  and  _179
REMARK   71  A    between atoms: _182  and  _184
REMARK   72  A    between atoms: _184  and  _185
REMARK   73  A    between atoms: _184  and  _187
REMARK   74  A    between atoms: _187  and  _188
REMARK   75  A    between atoms: _191  and  _193
REMARK   76  A    between atoms: _193  and  _194
REMARK   77  A    between atoms: _197  and  _199
REMARK   78  A    between atoms: _199  and  _200
REMARK   79  A    between atoms: _199  and  _202
REMARK   80  A    between atoms: _202  and  _203
REMARK   81  A    between atoms: _207  and  _208
REMARK   82  A    between atoms: _213  and  _215
REMARK   83  A    between atoms: _215  and  _216
REMARK   84  A    between atoms: _215  and  _218
REMARK   85  A    between atoms: _218  and  _219
REMARK   86  A    between atoms: _224  and  _226
REMARK   87  A    between atoms: _226  and  _227
REMARK   88  A    between atoms: _226  and  _229
REMARK   89  A    between atoms: _232  and  _234
REMARK   90  A    between atoms: _234  and  _235
REMARK   91  A    between atoms: _234  and  _237
REMARK   92  A    between atoms: _237  and  _238
REMARK   93  A    between atoms: _241  and  _243
REMARK   94  A    between atoms: _243  and  _244
REMARK   95  A    between atoms: _243  and  _246
REMARK   96  A    between atoms: _246  and  _247
REMARK   97  A    between atoms: _250  and  _252
REMARK   98  A    between atoms: _252  and  _253
REMARK   99  A    between atoms: _252  and  _255
REMARK  100  A    between atoms: _255  and  _256
REMARK  101  A    between atoms: _256  and  _257
REMARK  102  A    between atoms: _257  and  _258
REMARK  103  A    between atoms: _258  and  _259
REMARK  104  A    between atoms: _263  and  _265
REMARK  105  A    between atoms: _265  and  _266
REMARK  106  A    between atoms: _265  and  _268
REMARK  107  A    between atoms: _268  and  _269
REMARK  108  A    between atoms: _269  and  _270
REMARK  109  A    between atoms: _270  and  _271
REMARK  110  A    between atoms: _271  and  _272
REMARK  111  A    between atoms: _276  and  _278
REMARK  112  A    between atoms: _278  and  _279
REMARK  113  A    between atoms: _278  and  _281
REMARK  114  A    between atoms: _281  and  _282
REMARK  115  A    between atoms: _286  and  _287
REMARK  116  A    between atoms: _292  and  _294
REMARK  117  A    between atoms: _294  and  _295
REMARK  118  A    between atoms: _297  and  _299
REMARK  119  A    between atoms: _299  and  _300
REMARK  120  A    between atoms: _299  and  _302
REMARK  121  A    between atoms: _302  and  _303
REMARK  122  A    between atoms: _309  and  _310
REMARK  123  A    between atoms: _315  and  _317
REMARK  124  A    between atoms: _317  and  _318
REMARK  125  A    between atoms: _317  and  _320
REMARK  126  A    between atoms: _320  and  _321
REMARK  127  A    between atoms: _324  and  _326
REMARK  128  A    between atoms: _326  and  _327
REMARK  129  A    between atoms: _326  and  _329
REMARK  130  A    between atoms: _329  and  _330
REMARK  131  A    between atoms: _330  and  _331
REMARK  132  A    between atoms: _331  and  _332
REMARK  133  A    between atoms: _341  and  _343
REMARK  134  A    between atoms: _343  and  _344
REMARK  135  A    between atoms: _343  and  _346
REMARK  136  A    between atoms: _346  and  _347
REMARK  137  A    between atoms: _349  and  _351
REMARK  138  A    between atoms: _351  and  _352
REMARK  139  A    between atoms: _351  and  _354
REMARK  140  A    between atoms: _354  and  _355
REMARK  141  A    between atoms: _360  and  _361
REMARK  142  A    between atoms: _363  and  _365
REMARK  143  A    between atoms: _365  and  _366
REMARK  144  A    between atoms: _365  and  _368
REMARK  145  A    between atoms: _368  and  _369
REMARK  146  A    between atoms: _374  and  _376
REMARK  147  A    between atoms: _376  and  _377
REMARK  148  A    between atoms: _376  and  _379
REMARK  149  A    between atoms: _379  and  _380
REMARK  150  A    between atoms: _380  and  _381
REMARK  151  A    between atoms: _386  and  _388
REMARK  152  A    between atoms: _388  and  _389
REMARK  153  A    between atoms: _388  and  _391
REMARK  154  A    between atoms: _391  and  _392
REMARK  155  A    between atoms: _395  and  _397
REMARK  156  A    between atoms: _397  and  _398
REMARK  157  A    between atoms: _401  and  _403
REMARK  158  A    between atoms: _403  and  _404
REMARK  159  A    between atoms: _407  and  _409
REMARK  160  A    between atoms: _409  and  _410
REMARK  161  A    between atoms: _409  and  _412
REMARK  162  A    between atoms: _412  and  _413
REMARK  163  A    between atoms: _413  and  _414
REMARK  164  A    between atoms: _416  and  _418
REMARK  165  A    between atoms: _418  and  _419
REMARK  166  A    between atoms: _418  and  _421
REMARK  167  A    between atoms: _421  and  _422
REMARK  168  A    between atoms: _422  and  _423
REMARK  169  A    between atoms: _423  and  _424
REMARK  170  A    between atoms: _433  and  _435
REMARK  171  A    between atoms: _435  and  _436
REMARK  172  A    between atoms: _435  and  _438
REMARK  173  A    between atoms: _438  and  _439
REMARK  174  A    between atoms: _439  and  _440
REMARK  175  A    between atoms: _445  and  _447
REMARK  176  A    between atoms: _447  and  _448
REMARK  177  A    between atoms: _450  and  _452
REMARK  178  A    between atoms: _452  and  _453
REMARK  179  A    between atoms: _452  and  _455
REMARK  180  A    between atoms: _455  and  _456
REMARK  181  A    between atoms: _459  and  _461
REMARK  182  A    between atoms: _461  and  _462
REMARK  183  A    between atoms: _461  and  _464
REMARK  184  A    between atoms: _464  and  _465
REMARK  185  A    between atoms: _465  and  _466
REMARK  186  A    between atoms: _469  and  _471
REMARK  187  A    between atoms: _471  and  _472
REMARK  188  A    between atoms: _471  and  _474
REMARK  189  A    between atoms: _474  and  _475
REMARK  190  A    between atoms: _475  and  _476
REMARK  191  A    between atoms: _479  and  _481
REMARK  192  A    between atoms: _481  and  _482
REMARK  193  A    between atoms: _481  and  _484
REMARK  194  A    between atoms: _484  and  _485
REMARK  195  A    between atoms: _488  and  _490
REMARK  196  A    between atoms: _490  and  _491
REMARK  197  A    between atoms: _490  and  _493
REMARK  198  A    between atoms: _493  and  _494
REMARK  199  A    between atoms: _494  and  _495
REMARK  200  A    between atoms: _495  and  _496
REMARK  201  A    between atoms: _505  and  _507
REMARK  202  A    between atoms: _507  and  _508
REMARK  203  A    between atoms: _507  and  _510
REMARK  204  A    between atoms: _510  and  _511
REMARK  205  A    between atoms: _514  and  _516
REMARK  206  A    between atoms: _516  and  _517
REMARK  207  A    between atoms: _520  and  _522
REMARK  208  A    between atoms: _522  and  _523
REMARK  209  A    between atoms: _522  and  _525
REMARK  210  A    between atoms: _528  and  _530
REMARK  211  A    between atoms: _530  and  _531
REMARK  212  A    between atoms: _530  and  _533
REMARK  213  A    between atoms: _533  and  _534
REMARK  214  A    between atoms: _537  and  _539
REMARK  215  A    between atoms: _539  and  _540
REMARK  216  A    between atoms: _539  and  _542
REMARK  217  A    between atoms: _542  and  _543
REMARK  218  A    between atoms: _548  and  _549
REMARK                            x       y       z     vdW  Elec       q    Type
REMARK                         _______ _______ _______ _____ _____    ______ ____
ROOT
ATOM      1  O   HOH     1      -5.795  15.836 -13.987  0.00  0.00    +0.000 OA
ENDROOT
TORSDOF 0
REMARK  Name = ../refined-set-2016/2hw2/2hw2_pocket.pdb
REMARK  218 active torsions:
REMARK  status: ('A' for Active; 'I' for Inactive)
REMARK    1  A    between atoms: _2  and  _3
REMARK    2  A    between atoms: _8  and  _10
REMARK    3  A    between atoms: _10  and  _11
REMARK    4  A    between atoms: _10  and  _13
REMARK    5  A    between atoms: _13  and  _14
REMARK    6  A    between atoms: _20  and  _22
REMARK    7  A    between atoms: _22  and  _23
REMARK    8  A    between atoms: _25  and  _27
REMARK    9  A    between atoms: _27  and  _28
REMARK   10  A    between atoms: _27  and  _30
REMARK   11  A    between atoms: _30  and  _31
REMARK   12  A    between atoms: _33  and  _35
REMARK   13  A    between atoms: _35  and  _36
REMARK   14  A    between atoms: _35  and  _38
REMARK   15  A    between atoms: _38  and  _39
REMARK   16  A    between atoms: _44  and  _46
REMARK   17  A    between atoms: _46  and  _47
REMARK   18  A    between atoms: _46  and  _49
REMARK   19  A    between atoms: _49  and  _50
REMARK   20  A    between atoms: _56  and  _58
REMARK   21  A    between atoms: _58  and  _59
REMARK   22  A    between atoms: _58  and  _61
REMARK   23  A    between atoms: _61  and  _62
REMARK   24  A    between atoms: _62  and  _63
REMARK   25  A    between atoms: _66  and  _68
REMARK   26  A    between atoms: _68  and  _69
REMARK   27  A    between atoms: _68  and  _71
REMARK   28  A    between atoms: _71  and  _72
REMARK   29  A    between atoms: _72  and  _73
REMARK   30  A    between atoms: _75  and  _77
REMARK   31  A    between atoms: _77  and  _78
REMARK   32  A    between atoms: _77  and  _80
REMARK   33  A    between atoms: _80  and  _81
REMARK   34  A    between atoms: _86  and  _87
REMARK   35  A    between atoms: _89  and  _91
REMARK   36  A    between atoms: _91  and  _92
REMARK   37  A    between atoms: _91  and  _94
REMARK   38  A    between atoms: _94  and  _95
REMARK   39  A    between atoms: _98  and  _100
REMARK   40  A    between atoms: _100  and  _101
REMARK   41  A    between atoms: _100  and  _103
REMARK   42  A    between atoms: _103  and  _104
REMARK   43  A    between atoms: _107  and  _109
REMARK   44  A    between atoms: _109  and  _110
REMARK   45  A    between atoms: _109  and  _112
REMARK   46  A    between atoms: _112  and  _113
REMARK   47  A    between atoms: _116  and  _118
REMARK   48  A    between atoms: _118  and  _119
REMARK   49  A    between atoms: _118  and  _121
REMARK   50  A    between atoms: _121  and  _122
REMARK   51  A    between atoms: _125  and  _127
REMARK   52  A    between atoms: _127  and  _128
REMARK   53  A    between atoms: _131  and  _133
REMARK   54  A    between atoms: _133  and  _134
REMARK   55  A    between atoms: _137  and  _139
REMARK   56  A    between atoms: _139  and  _140
REMARK   57  A    between atoms: _139  and  _142
REMARK   58  A    between atoms: _145  and  _147
REMARK   59  A    between atoms: _147  and  _148
REMARK   60  A    between atoms: _147  and  _150
REMARK   61  A    between atoms: _150  and  _151
REMARK   62  A    between atoms: _161  and  _163
REMARK   63  A    between atoms: _163  and  _164
REMARK   64  A    between atoms: _166  and  _168
REMARK   65  A    between atoms: _168  and  _169
REMARK   66  A    between atoms: _172  and  _174
REMARK   67  A    between atoms: _174  and  _175
REMARK   68  A    between atoms: _174  and  _177
REMARK   69  A    between atoms: _177  and  _178
REMARK   70  A    between atoms: _178  and  _179
REMARK   71  A    between atoms: _182  and  _184
REMARK   72  A    between atoms: _184  and  _185
REMARK   73  A    between atoms: _184  and  _187
REMARK   74  A    between atoms: _187  and  _188
REMARK   75  A    between atoms: _191  and  _193
REMARK   76  A    between atoms: _193  and  _194
REMARK   77  A    between atoms: _197  and  _199
REMARK   78  A    between atoms: _199  and  _200
REMARK   79  A    between atoms: _199  and  _202
REMARK   80  A    between atoms: _202  and  _203
REMARK   81  A    between atoms: _207  and  _208
REMARK   82  A    between atoms: _213  and  _215
REMARK   83  A    between atoms: _215  and  _216
REMARK   84  A    between atoms: _215  and  _218
REMARK   85  A    between atoms: _218  and  _219
REMARK   86  A    between atoms: _224  and  _226
REMARK   87  A    between atoms: _226  and  _227
REMARK   88  A    between atoms: _226  and  _229
REMARK   89  A    between atoms: _232  and  _234
REMARK   90  A    between atoms: _234  and  _235
REMARK   91  A    between atoms: _234  and  _237
REMARK   92  A    between atoms: _237  and  _238
REMARK   93  A    between atoms: _241  and  _243
REMARK   94  A    between atoms: _243  and  _244
REMARK   95  A    between atoms: _243  and  _246
REMARK   96  A    between atoms: _246  and  _247
REMARK   97  A    between atoms: _250  and  _252
REMARK   98  A    between atoms: _252  and  _253
REMARK   99  A    between atoms: _252  and  _255
REMARK  100  A    between atoms: _255  and  _256
REMARK  101  A    between atoms: _256  and  _257
REMARK  102  A    between atoms: _257  and  _258
REMARK  103  A    between atoms: _258  and  _259
REMARK  104  A    between atoms: _263  and  _265
REMARK  105  A    between atoms: _265  and  _266
REMARK  106  A    between atoms: _265  and  _268
REMARK  107  A    between atoms: _268  and  _269
REMARK  108  A    between atoms: _269  and  _270
REMARK  109  A    between atoms: _270  and  _271
REMARK  110  A    between atoms: _271  and  _272
REMARK  111  A    between atoms: _276  and  _278
REMARK  112  A    between atoms: _278  and  _279
REMARK  113  A    between atoms: _278  and  _281
REMARK  114  A    between atoms: _281  and  _282
REMARK  115  A    between atoms: _286  and  _287
REMARK  116  A    between atoms: _292  and  _294
REMARK  117  A    between atoms: _294  and  _295
REMARK  118  A    between atoms: _297  and  _299
REMARK  119  A    between atoms: _299  and  _300
REMARK  120  A    between atoms: _299  and  _302
REMARK  121  A    between atoms: _302  and  _303
REMARK  122  A    between atoms: _309  and  _310
REMARK  123  A    between atoms: _315  and  _317
REMARK  124  A    between atoms: _317  and  _318
REMARK  125  A    between atoms: _317  and  _320
REMARK  126  A    between atoms: _320  and  _321
REMARK  127  A    between atoms: _324  and  _326
REMARK  128  A    between atoms: _326  and  _327
REMARK  129  A    between atoms: _326  and  _329
REMARK  130  A    between atoms: _329  and  _330
REMARK  131  A    between atoms: _330  and  _331
REMARK  132  A    between atoms: _331  and  _332
REMARK  133  A    between atoms: _341  and  _343
REMARK  134  A    between atoms: _343  and  _344
REMARK  135  A    between atoms: _343  and  _346
REMARK  136  A    between atoms: _346  and  _347
REMARK  137  A    between atoms: _349  and  _351
REMARK  138  A    between atoms: _351  and  _352
REMARK  139  A    between atoms: _351  and  _354
REMARK  140  A    between atoms: _354  and  _355
REMARK  141  A    between atoms: _360  and  _361
REMARK  142  A    between atoms: _363  and  _365
REMARK  143  A    between atoms: _365  and  _366
REMARK  144  A    between atoms: _365  and  _368
REMARK  145  A    between atoms: _368  and  _369
REMARK  146  A    between atoms: _374  and  _376
REMARK  147  A    between atoms: _376  and  _377
REMARK  148  A    between atoms: _376  and  _379
REMARK  149  A    between atoms: _379  and  _380
REMARK  150  A    between atoms: _380  and  _381
REMARK  151  A    between atoms: _386  and  _388
REMARK  152  A    between atoms: _388  and  _389
REMARK  153  A    between atoms: _388  and  _391
REMARK  154  A    between atoms: _391  and  _392
REMARK  155  A    between atoms: _395  and  _397
REMARK  156  A    between atoms: _397  and  _398
REMARK  157  A    between atoms: _401  and  _403
REMARK  158  A    between atoms: _403  and  _404
REMARK  159  A    between atoms: _407  and  _409
REMARK  160  A    between atoms: _409  and  _410
REMARK  161  A    between atoms: _409  and  _412
REMARK  162  A    between atoms: _412  and  _413
REMARK  163  A    between atoms: _413  and  _414
REMARK  164  A    between atoms: _416  and  _418
REMARK  165  A    between atoms: _418  and  _419
REMARK  166  A    between atoms: _418  and  _421
REMARK  167  A    between atoms: _421  and  _422
REMARK  168  A    between atoms: _422  and  _423
REMARK  169  A    between atoms: _423  and  _424
REMARK  170  A    between atoms: _433  and  _435
REMARK  171  A    between atoms: _435  and  _436
REMARK  172  A    between atoms: _435  and  _438
REMARK  173  A    between atoms: _438  and  _439
REMARK  174  A    between atoms: _439  and  _440
REMARK  175  A    between atoms: _445  and  _447
REMARK  176  A    between atoms: _447  and  _448
REMARK  177  A    between atoms: _450  and  _452
REMARK  178  A    between atoms: _452  and  _453
REMARK  179  A    between atoms: _452  and  _455
REMARK  180  A    between atoms: _455  and  _456
REMARK  181  A    between atoms: _459  and  _461
REMARK  182  A    between atoms: _461  and  _462
REMARK  183  A    between atoms: _461  and  _464
REMARK  184  A    between atoms: _464  and  _465
REMARK  185  A    between atoms: _465  and  _466
REMARK  186  A    between atoms: _469  and  _471
REMARK  187  A    between atoms: _471  and  _472
REMARK  188  A    between atoms: _471  and  _474
REMARK  189  A    between atoms: _474  and  _475
REMARK  190  A    between atoms: _475  and  _476
REMARK  191  A    between atoms: _479  and  _481
REMARK  192  A    between atoms: _481  and  _482
REMARK  193  A    between atoms: _481  and  _484
REMARK  194  A    between atoms: _484  and  _485
REMARK  195  A    between atoms: _488  and  _490
REMARK  196  A    between atoms: _490  and  _491
REMARK  197  A    between atoms: _490  and  _493
REMARK  198  A    between atoms: _493  and  _494
REMARK  199  A    between atoms: _494  and  _495
REMARK  200  A    between atoms: _495  and  _496
REMARK  201  A    between atoms: _505  and  _507
REMARK  202  A    between atoms: _507  and  _508
REMARK  203  A    between atoms: _507  and  _510
REMARK  204  A    between atoms: _510  and  _511
REMARK  205  A    between atoms: _514  and  _516
REMARK  206  A    between atoms: _516  and  _517
REMARK  207  A    between atoms: _520  and  _522
REMARK  208  A    between atoms: _522  and  _523
REMARK  209  A    between atoms: _522  and  _525
REMARK  210  A    between atoms: _528  and  _530
REMARK  211  A    between atoms: _530  and  _531
REMARK  212  A    between atoms: _530  and  _533
REMARK  213  A    between atoms: _533  and  _534
REMARK  214  A    between atoms: _537  and  _539
REMARK  215  A    between atoms: _539  and  _540
REMARK  216  A    between atoms: _539  and  _542
REMARK  217  A    between atoms: _542  and  _543
REMARK  218  A    between atoms: _548  and  _549
REMARK                            x       y       z     vdW  Elec       q    Type
REMARK                         _______ _______ _______ _____ _____    ______ ____
ROOT
ATOM      1  O   HOH     1      -6.375   1.618 -13.219  0.00  0.00    +0.000 OA
ENDROOT
TORSDOF 0
REMARK  Name = ../refined-set-2016/2hw2/2hw2_pocket.pdb
REMARK  218 active torsions:
REMARK  status: ('A' for Active; 'I' for Inactive)
REMARK    1  A    between atoms: _2  and  _3
REMARK    2  A    between atoms: _8  and  _10
REMARK    3  A    between atoms: _10  and  _11
REMARK    4  A    between atoms: _10  and  _13
REMARK    5  A    between atoms: _13  and  _14
REMARK    6  A    between atoms: _20  and  _22
REMARK    7  A    between atoms: _22  and  _23
REMARK    8  A    between atoms: _25  and  _27
REMARK    9  A    between atoms: _27  and  _28
REMARK   10  A    between atoms: _27  and  _30
REMARK   11  A    between atoms: _30  and  _31
REMARK   12  A    between atoms: _33  and  _35
REMARK   13  A    between atoms: _35  and  _36
REMARK   14  A    between atoms: _35  and  _38
REMARK   15  A    between atoms: _38  and  _39
REMARK   16  A    between atoms: _44  and  _46
REMARK   17  A    between atoms: _46  and  _47
REMARK   18  A    between atoms: _46  and  _49
REMARK   19  A    between atoms: _49  and  _50
REMARK   20  A    between atoms: _56  and  _58
REMARK   21  A    between atoms: _58  and  _59
REMARK   22  A    between atoms: _58  and  _61
REMARK   23  A    between atoms: _61  and  _62
REMARK   24  A    between atoms: _62  and  _63
REMARK   25  A    between atoms: _66  and  _68
REMARK   26  A    between atoms: _68  and  _69
REMARK   27  A    between atoms: _68  and  _71
REMARK   28  A    between atoms: _71  and  _72
REMARK   29  A    between atoms: _72  and  _73
REMARK   30  A    between atoms: _75  and  _77
REMARK   31  A    between atoms: _77  and  _78
REMARK   32  A    between atoms: _77  and  _80
REMARK   33  A    between atoms: _80  and  _81
REMARK   34  A    between atoms: _86  and  _87
REMARK   35  A    between atoms: _89  and  _91
REMARK   36  A    between atoms: _91  and  _92
REMARK   37  A    between atoms: _91  and  _94
REMARK   38  A    between atoms: _94  and  _95
REMARK   39  A    between atoms: _98  and  _100
REMARK   40  A    between atoms: _100  and  _101
REMARK   41  A    between atoms: _100  and  _103
REMARK   42  A    between atoms: _103  and  _104
REMARK   43  A    between atoms: _107  and  _109
REMARK   44  A    between atoms: _109  and  _110
REMARK   45  A    between atoms: _109  and  _112
REMARK   46  A    between atoms: _112  and  _113
REMARK   47  A    between atoms: _116  and  _118
REMARK   48  A    between atoms: _118  and  _119
REMARK   49  A    between atoms: _118  and  _121
REMARK   50  A    between atoms: _121  and  _122
REMARK   51  A    between atoms: _125  and  _127
REMARK   52  A    between atoms: _127  and  _128
REMARK   53  A    between atoms: _131  and  _133
REMARK   54  A    between atoms: _133  and  _134
REMARK   55  A    between atoms: _137  and  _139
REMARK   56  A    between atoms: _139  and  _140
REMARK   57  A    between atoms: _139  and  _142
REMARK   58  A    between atoms: _145  and  _147
REMARK   59  A    between atoms: _147  and  _148
REMARK   60  A    between atoms: _147  and  _150
REMARK   61  A    between atoms: _150  and  _151
REMARK   62  A    between atoms: _161  and  _163
REMARK   63  A    between atoms: _163  and  _164
REMARK   64  A    between atoms: _166  and  _168
REMARK   65  A    between atoms: _168  and  _169
REMARK   66  A    between atoms: _172  and  _174
REMARK   67  A    between atoms: _174  and  _175
REMARK   68  A    between atoms: _174  and  _177
REMARK   69  A    between atoms: _177  and  _178
REMARK   70  A    between atoms: _178  and  _179
REMARK   71  A    between atoms: _182  and  _184
REMARK   72  A    between atoms: _184  and  _185
REMARK   73  A    between atoms: _184  and  _187
REMARK   74  A    between atoms: _187  and  _188
REMARK   75  A    between atoms: _191  and  _193
REMARK   76  A    between atoms: _193  and  _194
REMARK   77  A    between atoms: _197  and  _199
REMARK   78  A    between atoms: _199  and  _200
REMARK   79  A    between atoms: _199  and  _202
REMARK   80  A    between atoms: _202  and  _203
REMARK   81  A    between atoms: _207  and  _208
REMARK   82  A    between atoms: _213  and  _215
REMARK   83  A    between atoms: _215  and  _216
REMARK   84  A    between atoms: _215  and  _218
REMARK   85  A    between atoms: _218  and  _219
REMARK   86  A    between atoms: _224  and  _226
REMARK   87  A    between atoms: _226  and  _227
REMARK   88  A    between atoms: _226  and  _229
REMARK   89  A    between atoms: _232  and  _234
REMARK   90  A    between atoms: _234  and  _235
REMARK   91  A    between atoms: _234  and  _237
REMARK   92  A    between atoms: _237  and  _238
REMARK   93  A    between atoms: _241  and  _243
REMARK   94  A    between atoms: _243  and  _244
REMARK   95  A    between atoms: _243  and  _246
REMARK   96  A    between atoms: _246  and  _247
REMARK   97  A    between atoms: _250  and  _252
REMARK   98  A    between atoms: _252  and  _253
REMARK   99  A    between atoms: _252  and  _255
REMARK  100  A    between atoms: _255  and  _256
REMARK  101  A    between atoms: _256  and  _257
REMARK  102  A    between atoms: _257  and  _258
REMARK  103  A    between atoms: _258  and  _259
REMARK  104  A    between atoms: _263  and  _265
REMARK  105  A    between atoms: _265  and  _266
REMARK  106  A    between atoms: _265  and  _268
REMARK  107  A    between atoms: _268  and  _269
REMARK  108  A    between atoms: _269  and  _270
REMARK  109  A    between atoms: _270  and  _271
REMARK  110  A    between atoms: _271  and  _272
REMARK  111  A    between atoms: _276  and  _278
REMARK  112  A    between atoms: _278  and  _279
REMARK  113  A    between atoms: _278  and  _281
REMARK  114  A    between atoms: _281  and  _282
REMARK  115  A    between atoms: _286  and  _287
REMARK  116  A    between atoms: _292  and  _294
REMARK  117  A    between atoms: _294  and  _295
REMARK  118  A    between atoms: _297  and  _299
REMARK  119  A    between atoms: _299  and  _300
REMARK  120  A    between atoms: _299  and  _302
REMARK  121  A    between atoms: _302  and  _303
REMARK  122  A    between atoms: _309  and  _310
REMARK  123  A    between atoms: _315  and  _317
REMARK  124  A    between atoms: _317  and  _318
REMARK  125  A    between atoms: _317  and  _320
REMARK  126  A    between atoms: _320  and  _321
REMARK  127  A    between atoms: _324  and  _326
REMARK  128  A    between atoms: _326  and  _327
REMARK  129  A    between atoms: _326  and  _329
REMARK  130  A    between atoms: _329  and  _330
REMARK  131  A    between atoms: _330  and  _331
REMARK  132  A    between atoms: _331  and  _332
REMARK  133  A    between atoms: _341  and  _343
REMARK  134  A    between atoms: _343  and  _344
REMARK  135  A    between atoms: _343  and  _346
REMARK  136  A    between atoms: _346  and  _347
REMARK  137  A    between atoms: _349  and  _351
REMARK  138  A    between atoms: _351  and  _352
REMARK  139  A    between atoms: _351  and  _354
REMARK  140  A    between atoms: _354  and  _355
REMARK  141  A    between atoms: _360  and  _361
REMARK  142  A    between atoms: _363  and  _365
REMARK  143  A    between atoms: _365  and  _366
REMARK  144  A    between atoms: _365  and  _368
REMARK  145  A    between atoms: _368  and  _369
REMARK  146  A    between atoms: _374  and  _376
REMARK  147  A    between atoms: _376  and  _377
REMARK  148  A    between atoms: _376  and  _379
REMARK  149  A    between atoms: _379  and  _380
REMARK  150  A    between atoms: _380  and  _381
REMARK  151  A    between atoms: _386  and  _388
REMARK  152  A    between atoms: _388  and  _389
REMARK  153  A    between atoms: _388  and  _391
REMARK  154  A    between atoms: _391  and  _392
REMARK  155  A    between atoms: _395  and  _397
REMARK  156  A    between atoms: _397  and  _398
REMARK  157  A    between atoms: _401  and  _403
REMARK  158  A    between atoms: _403  and  _404
REMARK  159  A    between atoms: _407  and  _409
REMARK  160  A    between atoms: _409  and  _410
REMARK  161  A    between atoms: _409  and  _412
REMARK  162  A    between atoms: _412  and  _413
REMARK  163  A    between atoms: _413  and  _414
REMARK  164  A    between atoms: _416  and  _418
REMARK  165  A    between atoms: _418  and  _419
REMARK  166  A    between atoms: _418  and  _421
REMARK  167  A    between atoms: _421  and  _422
REMARK  168  A    between atoms: _422  and  _423
REMARK  169  A    between atoms: _423  and  _424
REMARK  170  A    between atoms: _433  and  _435
REMARK  171  A    between atoms: _435  and  _436
REMARK  172  A    between atoms: _435  and  _438
REMARK  173  A    between atoms: _438  and  _439
REMARK  174  A    between atoms: _439  and  _440
REMARK  175  A    between atoms: _445  and  _447
REMARK  176  A    between atoms: _447  and  _448
REMARK  177  A    between atoms: _450  and  _452
REMARK  178  A    between atoms: _452  and  _453
REMARK  179  A    between atoms: _452  and  _455
REMARK  180  A    between atoms: _455  and  _456
REMARK  181  A    between atoms: _459  and  _461
REMARK  182  A    between atoms: _461  and  _462
REMARK  183  A    between atoms: _461  and  _464
REMARK  184  A    between atoms: _464  and  _465
REMARK  185  A    between atoms: _465  and  _466
REMARK  186  A    between atoms: _469  and  _471
REMARK  187  A    between atoms: _471  and  _472
REMARK  188  A    between atoms: _471  and  _474
REMARK  189  A    between atoms: _474  and  _475
REMARK  190  A    between atoms: _475  and  _476
REMARK  191  A    between atoms: _479  and  _481
REMARK  192  A    between atoms: _481  and  _482
REMARK  193  A    between atoms: _481  and  _484
REMARK  194  A    between atoms: _484  and  _485
REMARK  195  A    between atoms: _488  and  _490
REMARK  196  A    between atoms: _490  and  _491
REMARK  197  A    between atoms: _490  and  _493
REMARK  198  A    between atoms: _493  and  _494
REMARK  199  A    between atoms: _494  and  _495
REMARK  200  A    between atoms: _495  and  _496
REMARK  201  A    between atoms: _505  and  _507
REMARK  202  A    between atoms: _507  and  _508
REMARK  203  A    between atoms: _507  and  _510
REMARK  204  A    between atoms: _510  and  _511
REMARK  205  A    between atoms: _514  and  _516
REMARK  206  A    between atoms: _516  and  _517
REMARK  207  A    between atoms: _520  and  _522
REMARK  208  A    between atoms: _522  and  _523
REMARK  209  A    between atoms: _522  and  _525
REMARK  210  A    between atoms: _528  and  _530
REMARK  211  A    between atoms: _530  and  _531
REMARK  212  A    between atoms: _530  and  _533
REMARK  213  A    between atoms: _533  and  _534
REMARK  214  A    between atoms: _537  and  _539
REMARK  215  A    between atoms: _539  and  _540
REMARK  216  A    between atoms: _539  and  _542
REMARK  217  A    between atoms: _542  and  _543
REMARK  218  A    between atoms: _548  and  _549
REMARK                            x       y       z     vdW  Elec       q    Type
REMARK                         _______ _______ _______ _____ _____    ______ ____
ROOT
ATOM      1  O   HOH     1     -20.584   1.514  -9.816  0.00  0.00    +0.000 OA
ENDROOT
TORSDOF 0
REMARK  Name = ../refined-set-2016/2hw2/2hw2_pocket.pdb
REMARK  218 active torsions:
REMARK  status: ('A' for Active; 'I' for Inactive)
REMARK    1  A    between atoms: _2  and  _3
REMARK    2  A    between atoms: _8  and  _10
REMARK    3  A    between atoms: _10  and  _11
REMARK    4  A    between atoms: _10  and  _13
REMARK    5  A    between atoms: _13  and  _14
REMARK    6  A    between atoms: _20  and  _22
REMARK    7  A    between atoms: _22  and  _23
REMARK    8  A    between atoms: _25  and  _27
REMARK    9  A    between atoms: _27  and  _28
REMARK   10  A    between atoms: _27  and  _30
REMARK   11  A    between atoms: _30  and  _31
REMARK   12  A    between atoms: _33  and  _35
REMARK   13  A    between atoms: _35  and  _36
REMARK   14  A    between atoms: _35  and  _38
REMARK   15  A    between atoms: _38  and  _39
REMARK   16  A    between atoms: _44  and  _46
REMARK   17  A    between atoms: _46  and  _47
REMARK   18  A    between atoms: _46  and  _49
REMARK   19  A    between atoms: _49  and  _50
REMARK   20  A    between atoms: _56  and  _58
REMARK   21  A    between atoms: _58  and  _59
REMARK   22  A    between atoms: _58  and  _61
REMARK   23  A    between atoms: _61  and  _62
REMARK   24  A    between atoms: _62  and  _63
REMARK   25  A    between atoms: _66  and  _68
REMARK   26  A    between atoms: _68  and  _69
REMARK   27  A    between atoms: _68  and  _71
REMARK   28  A    between atoms: _71  and  _72
REMARK   29  A    between atoms: _72  and  _73
REMARK   30  A    between atoms: _75  and  _77
REMARK   31  A    between atoms: _77  and  _78
REMARK   32  A    between atoms: _77  and  _80
REMARK   33  A    between atoms: _80  and  _81
REMARK   34  A    between atoms: _86  and  _87
REMARK   35  A    between atoms: _89  and  _91
REMARK   36  A    between atoms: _91  and  _92
REMARK   37  A    between atoms: _91  and  _94
REMARK   38  A    between atoms: _94  and  _95
REMARK   39  A    between atoms: _98  and  _100
REMARK   40  A    between atoms: _100  and  _101
REMARK   41  A    between atoms: _100  and  _103
REMARK   42  A    between atoms: _103  and  _104
REMARK   43  A    between atoms: _107  and  _109
REMARK   44  A    between atoms: _109  and  _110
REMARK   45  A    between atoms: _109  and  _112
REMARK   46  A    between atoms: _112  and  _113
REMARK   47  A    between atoms: _116  and  _118
REMARK   48  A    between atoms: _118  and  _119
REMARK   49  A    between atoms: _118  and  _121
REMARK   50  A    between atoms: _121  and  _122
REMARK   51  A    between atoms: _125  and  _127
REMARK   52  A    between atoms: _127  and  _128
REMARK   53  A    between atoms: _131  and  _133
REMARK   54  A    between atoms: _133  and  _134
REMARK   55  A    between atoms: _137  and  _139
REMARK   56  A    between atoms: _139  and  _140
REMARK   57  A    between atoms: _139  and  _142
REMARK   58  A    between atoms: _145  and  _147
REMARK   59  A    between atoms: _147  and  _148
REMARK   60  A    between atoms: _147  and  _150
REMARK   61  A    between atoms: _150  and  _151
REMARK   62  A    between atoms: _161  and  _163
REMARK   63  A    between atoms: _163  and  _164
REMARK   64  A    between atoms: _166  and  _168
REMARK   65  A    between atoms: _168  and  _169
REMARK   66  A    between atoms: _172  and  _174
REMARK   67  A    between atoms: _174  and  _175
REMARK   68  A    between atoms: _174  and  _177
REMARK   69  A    between atoms: _177  and  _178
REMARK   70  A    between atoms: _178  and  _179
REMARK   71  A    between atoms: _182  and  _184
REMARK   72  A    between atoms: _184  and  _185
REMARK   73  A    between atoms: _184  and  _187
REMARK   74  A    between atoms: _187  and  _188
REMARK   75  A    between atoms: _191  and  _193
REMARK   76  A    between atoms: _193  and  _194
REMARK   77  A    between atoms: _197  and  _199
REMARK   78  A    between atoms: _199  and  _200
REMARK   79  A    between atoms: _199  and  _202
REMARK   80  A    between atoms: _202  and  _203
REMARK   81  A    between atoms: _207  and  _208
REMARK   82  A    between atoms: _213  and  _215
REMARK   83  A    between atoms: _215  and  _216
REMARK   84  A    between atoms: _215  and  _218
REMARK   85  A    between atoms: _218  and  _219
REMARK   86  A    between atoms: _224  and  _226
REMARK   87  A    between atoms: _226  and  _227
REMARK   88  A    between atoms: _226  and  _229
REMARK   89  A    between atoms: _232  and  _234
REMARK   90  A    between atoms: _234  and  _235
REMARK   91  A    between atoms: _234  and  _237
REMARK   92  A    between atoms: _237  and  _238
REMARK   93  A    between atoms: _241  and  _243
REMARK   94  A    between atoms: _243  and  _244
REMARK   95  A    between atoms: _243  and  _246
REMARK   96  A    between atoms: _246  and  _247
REMARK   97  A    between atoms: _250  and  _252
REMARK   98  A    between atoms: _252  and  _253
REMARK   99  A    between atoms: _252  and  _255
REMARK  100  A    between atoms: _255  and  _256
REMARK  101  A    between atoms: _256  and  _257
REMARK  102  A    between atoms: _257  and  _258
REMARK  103  A    between atoms: _258  and  _259
REMARK  104  A    between atoms: _263  and  _265
REMARK  105  A    between atoms: _265  and  _266
REMARK  106  A    between atoms: _265  and  _268
REMARK  107  A    between atoms: _268  and  _269
REMARK  108  A    between atoms: _269  and  _270
REMARK  109  A    between atoms: _270  and  _271
REMARK  110  A    between atoms: _271  and  _272
REMARK  111  A    between atoms: _276  and  _278
REMARK  112  A    between atoms: _278  and  _279
REMARK  113  A    between atoms: _278  and  _281
REMARK  114  A    between atoms: _281  and  _282
REMARK  115  A    between atoms: _286  and  _287
REMARK  116  A    between atoms: _292  and  _294
REMARK  117  A    between atoms: _294  and  _295
REMARK  118  A    between atoms: _297  and  _299
REMARK  119  A    between atoms: _299  and  _300
REMARK  120  A    between atoms: _299  and  _302
REMARK  121  A    between atoms: _302  and  _303
REMARK  122  A    between atoms: _309  and  _310
REMARK  123  A    between atoms: _315  and  _317
REMARK  124  A    between atoms: _317  and  _318
REMARK  125  A    between atoms: _317  and  _320
REMARK  126  A    between atoms: _320  and  _321
REMARK  127  A    between atoms: _324  and  _326
REMARK  128  A    between atoms: _326  and  _327
REMARK  129  A    between atoms: _326  and  _329
REMARK  130  A    between atoms: _329  and  _330
REMARK  131  A    between atoms: _330  and  _331
REMARK  132  A    between atoms: _331  and  _332
REMARK  133  A    between atoms: _341  and  _343
REMARK  134  A    between atoms: _343  and  _344
REMARK  135  A    between atoms: _343  and  _346
REMARK  136  A    between atoms: _346  and  _347
REMARK  137  A    between atoms: _349  and  _351
REMARK  138  A    between atoms: _351  and  _352
REMARK  139  A    between atoms: _351  and  _354
REMARK  140  A    between atoms: _354  and  _355
REMARK  141  A    between atoms: _360  and  _361
REMARK  142  A    between atoms: _363  and  _365
REMARK  143  A    between atoms: _365  and  _366
REMARK  144  A    between atoms: _365  and  _368
REMARK  145  A    between atoms: _368  and  _369
REMARK  146  A    between atoms: _374  and  _376
REMARK  147  A    between atoms: _376  and  _377
REMARK  148  A    between atoms: _376  and  _379
REMARK  149  A    between atoms: _379  and  _380
REMARK  150  A    between atoms: _380  and  _381
REMARK  151  A    between atoms: _386  and  _388
REMARK  152  A    between atoms: _388  and  _389
REMARK  153  A    between atoms: _388  and  _391
REMARK  154  A    between atoms: _391  and  _392
REMARK  155  A    between atoms: _395  and  _397
REMARK  156  A    between atoms: _397  and  _398
REMARK  157  A    between atoms: _401  and  _403
REMARK  158  A    between atoms: _403  and  _404
REMARK  159  A    between atoms: _407  and  _409
REMARK  160  A    between atoms: _409  and  _410
REMARK  161  A    between atoms: _409  and  _412
REMARK  162  A    between atoms: _412  and  _413
REMARK  163  A    between atoms: _413  and  _414
REMARK  164  A    between atoms: _416  and  _418
REMARK  165  A    between atoms: _418  and  _419
REMARK  166  A    between atoms: _418  and  _421
REMARK  167  A    between atoms: _421  and  _422
REMARK  168  A    between atoms: _422  and  _423
REMARK  169  A    between atoms: _423  and  _424
REMARK  170  A    between atoms: _433  and  _435
REMARK  171  A    between atoms: _435  and  _436
REMARK  172  A    between atoms: _435  and  _438
REMARK  173  A    between atoms: _438  and  _439
REMARK  174  A    between atoms: _439  and  _440
REMARK  175  A    between atoms: _445  and  _447
REMARK  176  A    between atoms: _447  and  _448
REMARK  177  A    between atoms: _450  and  _452
REMARK  178  A    between atoms: _452  and  _453
REMARK  179  A    between atoms: _452  and  _455
REMARK  180  A    between atoms: _455  and  _456
REMARK  181  A    between atoms: _459  and  _461
REMARK  182  A    between atoms: _461  and  _462
REMARK  183  A    between atoms: _461  and  _464
REMARK  184  A    between atoms: _464  and  _465
REMARK  185  A    between atoms: _465  and  _466
REMARK  186  A    between atoms: _469  and  _471
REMARK  187  A    between atoms: _471  and  _472
REMARK  188  A    between atoms: _471  and  _474
REMARK  189  A    between atoms: _474  and  _475
REMARK  190  A    between atoms: _475  and  _476
REMARK  191  A    between atoms: _479  and  _481
REMARK  192  A    between atoms: _481  and  _482
REMARK  193  A    between atoms: _481  and  _484
REMARK  194  A    between atoms: _484  and  _485
REMARK  195  A    between atoms: _488  and  _490
REMARK  196  A    between atoms: _490  and  _491
REMARK  197  A    between atoms: _490  and  _493
REMARK  198  A    between atoms: _493  and  _494
REMARK  199  A    between atoms: _494  and  _495
REMARK  200  A    between atoms: _495  and  _496
REMARK  201  A    between atoms: _505  and  _507
REMARK  202  A    between atoms: _507  and  _508
REMARK  203  A    between atoms: _507  and  _510
REMARK  204  A    between atoms: _510  and  _511
REMARK  205  A    between atoms: _514  and  _516
REMARK  206  A    between atoms: _516  and  _517
REMARK  207  A    between atoms: _520  and  _522
REMARK  208  A    between atoms: _522  and  _523
REMARK  209  A    between atoms: _522  and  _525
REMARK  210  A    between atoms: _528  and  _530
REMARK  211  A    between atoms: _530  and  _531
REMARK  212  A    between atoms: _530  and  _533
REMARK  213  A    between atoms: _533  and  _534
REMARK  214  A    between atoms: _537  and  _539
REMARK  215  A    between atoms: _539  and  _540
REMARK  216  A    between atoms: _539  and  _542
REMARK  217  A    between atoms: _542  and  _543
REMARK  218  A    between atoms: _548  and  _549
REMARK                            x       y       z     vdW  Elec       q    Type
REMARK                         _______ _______ _______ _____ _____    ______ ____
ROOT
ATOM      1  O   HOH     1     -16.107  -1.266 -14.161  0.00  0.00    +0.000 OA
ENDROOT
TORSDOF 0
REMARK  Name = ../refined-set-2016/2hw2/2hw2_pocket.pdb
REMARK  218 active torsions:
REMARK  status: ('A' for Active; 'I' for Inactive)
REMARK    1  A    between atoms: _2  and  _3
REMARK    2  A    between atoms: _8  and  _10
REMARK    3  A    between atoms: _10  and  _11
REMARK    4  A    between atoms: _10  and  _13
REMARK    5  A    between atoms: _13  and  _14
REMARK    6  A    between atoms: _20  and  _22
REMARK    7  A    between atoms: _22  and  _23
REMARK    8  A    between atoms: _25  and  _27
REMARK    9  A    between atoms: _27  and  _28
REMARK   10  A    between atoms: _27  and  _30
REMARK   11  A    between atoms: _30  and  _31
REMARK   12  A    between atoms: _33  and  _35
REMARK   13  A    between atoms: _35  and  _36
REMARK   14  A    between atoms: _35  and  _38
REMARK   15  A    between atoms: _38  and  _39
REMARK   16  A    between atoms: _44  and  _46
REMARK   17  A    between atoms: _46  and  _47
REMARK   18  A    between atoms: _46  and  _49
REMARK   19  A    between atoms: _49  and  _50
REMARK   20  A    between atoms: _56  and  _58
REMARK   21  A    between atoms: _58  and  _59
REMARK   22  A    between atoms: _58  and  _61
REMARK   23  A    between atoms: _61  and  _62
REMARK   24  A    between atoms: _62  and  _63
REMARK   25  A    between atoms: _66  and  _68
REMARK   26  A    between atoms: _68  and  _69
REMARK   27  A    between atoms: _68  and  _71
REMARK   28  A    between atoms: _71  and  _72
REMARK   29  A    between atoms: _72  and  _73
REMARK   30  A    between atoms: _75  and  _77
REMARK   31  A    between atoms: _77  and  _78
REMARK   32  A    between atoms: _77  and  _80
REMARK   33  A    between atoms: _80  and  _81
REMARK   34  A    between atoms: _86  and  _87
REMARK   35  A    between atoms: _89  and  _91
REMARK   36  A    between atoms: _91  and  _92
REMARK   37  A    between atoms: _91  and  _94
REMARK   38  A    between atoms: _94  and  _95
REMARK   39  A    between atoms: _98  and  _100
REMARK   40  A    between atoms: _100  and  _101
REMARK   41  A    between atoms: _100  and  _103
REMARK   42  A    between atoms: _103  and  _104
REMARK   43  A    between atoms: _107  and  _109
REMARK   44  A    between atoms: _109  and  _110
REMARK   45  A    between atoms: _109  and  _112
REMARK   46  A    between atoms: _112  and  _113
REMARK   47  A    between atoms: _116  and  _118
REMARK   48  A    between atoms: _118  and  _119
REMARK   49  A    between atoms: _118  and  _121
REMARK   50  A    between atoms: _121  and  _122
REMARK   51  A    between atoms: _125  and  _127
REMARK   52  A    between atoms: _127  and  _128
REMARK   53  A    between atoms: _131  and  _133
REMARK   54  A    between atoms: _133  and  _134
REMARK   55  A    between atoms: _137  and  _139
REMARK   56  A    between atoms: _139  and  _140
REMARK   57  A    between atoms: _139  and  _142
REMARK   58  A    between atoms: _145  and  _147
REMARK   59  A    between atoms: _147  and  _148
REMARK   60  A    between atoms: _147  and  _150
REMARK   61  A    between atoms: _150  and  _151
REMARK   62  A    between atoms: _161  and  _163
REMARK   63  A    between atoms: _163  and  _164
REMARK   64  A    between atoms: _166  and  _168
REMARK   65  A    between atoms: _168  and  _169
REMARK   66  A    between atoms: _172  and  _174
REMARK   67  A    between atoms: _174  and  _175
REMARK   68  A    between atoms: _174  and  _177
REMARK   69  A    between atoms: _177  and  _178
REMARK   70  A    between atoms: _178  and  _179
REMARK   71  A    between atoms: _182  and  _184
REMARK   72  A    between atoms: _184  and  _185
REMARK   73  A    between atoms: _184  and  _187
REMARK   74  A    between atoms: _187  and  _188
REMARK   75  A    between atoms: _191  and  _193
REMARK   76  A    between atoms: _193  and  _194
REMARK   77  A    between atoms: _197  and  _199
REMARK   78  A    between atoms: _199  and  _200
REMARK   79  A    between atoms: _199  and  _202
REMARK   80  A    between atoms: _202  and  _203
REMARK   81  A    between atoms: _207  and  _208
REMARK   82  A    between atoms: _213  and  _215
REMARK   83  A    between atoms: _215  and  _216
REMARK   84  A    between atoms: _215  and  _218
REMARK   85  A    between atoms: _218  and  _219
REMARK   86  A    between atoms: _224  and  _226
REMARK   87  A    between atoms: _226  and  _227
REMARK   88  A    between atoms: _226  and  _229
REMARK   89  A    between atoms: _232  and  _234
REMARK   90  A    between atoms: _234  and  _235
REMARK   91  A    between atoms: _234  and  _237
REMARK   92  A    between atoms: _237  and  _238
REMARK   93  A    between atoms: _241  and  _243
REMARK   94  A    between atoms: _243  and  _244
REMARK   95  A    between atoms: _243  and  _246
REMARK   96  A    between atoms: _246  and  _247
REMARK   97  A    between atoms: _250  and  _252
REMARK   98  A    between atoms: _252  and  _253
REMARK   99  A    between atoms: _252  and  _255
REMARK  100  A    between atoms: _255  and  _256
REMARK  101  A    between atoms: _256  and  _257
REMARK  102  A    between atoms: _257  and  _258
REMARK  103  A    between atoms: _258  and  _259
REMARK  104  A    between atoms: _263  and  _265
REMARK  105  A    between atoms: _265  and  _266
REMARK  106  A    between atoms: _265  and  _268
REMARK  107  A    between atoms: _268  and  _269
REMARK  108  A    between atoms: _269  and  _270
REMARK  109  A    between atoms: _270  and  _271
REMARK  110  A    between atoms: _271  and  _272
REMARK  111  A    between atoms: _276  and  _278
REMARK  112  A    between atoms: _278  and  _279
REMARK  113  A    between atoms: _278  and  _281
REMARK  114  A    between atoms: _281  and  _282
REMARK  115  A    between atoms: _286  and  _287
REMARK  116  A    between atoms: _292  and  _294
REMARK  117  A    between atoms: _294  and  _295
REMARK  118  A    between atoms: _297  and  _299
REMARK  119  A    between atoms: _299  and  _300
REMARK  120  A    between atoms: _299  and  _302
REMARK  121  A    between atoms: _302  and  _303
REMARK  122  A    between atoms: _309  and  _310
REMARK  123  A    between atoms: _315  and  _317
REMARK  124  A    between atoms: _317  and  _318
REMARK  125  A    between atoms: _317  and  _320
REMARK  126  A    between atoms: _320  and  _321
REMARK  127  A    between atoms: _324  and  _326
REMARK  128  A    between atoms: _326  and  _327
REMARK  129  A    between atoms: _326  and  _329
REMARK  130  A    between atoms: _329  and  _330
REMARK  131  A    between atoms: _330  and  _331
REMARK  132  A    between atoms: _331  and  _332
REMARK  133  A    between atoms: _341  and  _343
REMARK  134  A    between atoms: _343  and  _344
REMARK  135  A    between atoms: _343  and  _346
REMARK  136  A    between atoms: _346  and  _347
REMARK  137  A    between atoms: _349  and  _351
REMARK  138  A    between atoms: _351  and  _352
REMARK  139  A    between atoms: _351  and  _354
REMARK  140  A    between atoms: _354  and  _355
REMARK  141  A    between atoms: _360  and  _361
REMARK  142  A    between atoms: _363  and  _365
REMARK  143  A    between atoms: _365  and  _366
REMARK  144  A    between atoms: _365  and  _368
REMARK  145  A    between atoms: _368  and  _369
REMARK  146  A    between atoms: _374  and  _376
REMARK  147  A    between atoms: _376  and  _377
REMARK  148  A    between atoms: _376  and  _379
REMARK  149  A    between atoms: _379  and  _380
REMARK  150  A    between atoms: _380  and  _381
REMARK  151  A    between atoms: _386  and  _388
REMARK  152  A    between atoms: _388  and  _389
REMARK  153  A    between atoms: _388  and  _391
REMARK  154  A    between atoms: _391  and  _392
REMARK  155  A    between atoms: _395  and  _397
REMARK  156  A    between atoms: _397  and  _398
REMARK  157  A    between atoms: _401  and  _403
REMARK  158  A    between atoms: _403  and  _404
REMARK  159  A    between atoms: _407  and  _409
REMARK  160  A    between atoms: _409  and  _410
REMARK  161  A    between atoms: _409  and  _412
REMARK  162  A    between atoms: _412  and  _413
REMARK  163  A    between atoms: _413  and  _414
REMARK  164  A    between atoms: _416  and  _418
REMARK  165  A    between atoms: _418  and  _419
REMARK  166  A    between atoms: _418  and  _421
REMARK  167  A    between atoms: _421  and  _422
REMARK  168  A    between atoms: _422  and  _423
REMARK  169  A    between atoms: _423  and  _424
REMARK  170  A    between atoms: _433  and  _435
REMARK  171  A    between atoms: _435  and  _436
REMARK  172  A    between atoms: _435  and  _438
REMARK  173  A    between atoms: _438  and  _439
REMARK  174  A    between atoms: _439  and  _440
REMARK  175  A    between atoms: _445  and  _447
REMARK  176  A    between atoms: _447  and  _448
REMARK  177  A    between atoms: _450  and  _452
REMARK  178  A    between atoms: _452  and  _453
REMARK  179  A    between atoms: _452  and  _455
REMARK  180  A    between atoms: _455  and  _456
REMARK  181  A    between atoms: _459  and  _461
REMARK  182  A    between atoms: _461  and  _462
REMARK  183  A    between atoms: _461  and  _464
REMARK  184  A    between atoms: _464  and  _465
REMARK  185  A    between atoms: _465  and  _466
REMARK  186  A    between atoms: _469  and  _471
REMARK  187  A    between atoms: _471  and  _472
REMARK  188  A    between atoms: _471  and  _474
REMARK  189  A    between atoms: _474  and  _475
REMARK  190  A    between atoms: _475  and  _476
REMARK  191  A    between atoms: _479  and  _481
REMARK  192  A    between atoms: _481  and  _482
REMARK  193  A    between atoms: _481  and  _484
REMARK  194  A    between atoms: _484  and  _485
REMARK  195  A    between atoms: _488  and  _490
REMARK  196  A    between atoms: _490  and  _491
REMARK  197  A    between atoms: _490  and  _493
REMARK  198  A    between atoms: _493  and  _494
REMARK  199  A    between atoms: _494  and  _495
REMARK  200  A    between atoms: _495  and  _496
REMARK  201  A    between atoms: _505  and  _507
REMARK  202  A    between atoms: _507  and  _508
REMARK  203  A    between atoms: _507  and  _510
REMARK  204  A    between atoms: _510  and  _511
REMARK  205  A    between atoms: _514  and  _516
REMARK  206  A    between atoms: _516  and  _517
REMARK  207  A    between atoms: _520  and  _522
REMARK  208  A    between atoms: _522  and  _523
REMARK  209  A    between atoms: _522  and  _525
REMARK  210  A    between atoms: _528  and  _530
REMARK  211  A    between atoms: _530  and  _531
REMARK  212  A    between atoms: _530  and  _533
REMARK  213  A    between atoms: _533  and  _534
REMARK  214  A    between atoms: _537  and  _539
REMARK  215  A    between atoms: _539  and  _540
REMARK  216  A    between atoms: _539  and  _542
REMARK  217  A    between atoms: _542  and  _543
REMARK  218  A    between atoms: _548  and  _549
REMARK                            x       y       z     vdW  Elec       q    Type
REMARK                         _______ _______ _______ _____ _____    ______ ____
ROOT
ATOM      1  O   HOH     1     -23.365   4.764 -15.426  0.00  0.00    +0.000 OA
ENDROOT
TORSDOF 0
REMARK  Name = ../refined-set-2016/2hw2/2hw2_pocket.pdb
REMARK  218 active torsions:
REMARK  status: ('A' for Active; 'I' for Inactive)
REMARK    1  A    between atoms: _2  and  _3
REMARK    2  A    between atoms: _8  and  _10
REMARK    3  A    between atoms: _10  and  _11
REMARK    4  A    between atoms: _10  and  _13
REMARK    5  A    between atoms: _13  and  _14
REMARK    6  A    between atoms: _20  and  _22
REMARK    7  A    between atoms: _22  and  _23
REMARK    8  A    between atoms: _25  and  _27
REMARK    9  A    between atoms: _27  and  _28
REMARK   10  A    between atoms: _27  and  _30
REMARK   11  A    between atoms: _30  and  _31
REMARK   12  A    between atoms: _33  and  _35
REMARK   13  A    between atoms: _35  and  _36
REMARK   14  A    between atoms: _35  and  _38
REMARK   15  A    between atoms: _38  and  _39
REMARK   16  A    between atoms: _44  and  _46
REMARK   17  A    between atoms: _46  and  _47
REMARK   18  A    between atoms: _46  and  _49
REMARK   19  A    between atoms: _49  and  _50
REMARK   20  A    between atoms: _56  and  _58
REMARK   21  A    between atoms: _58  and  _59
REMARK   22  A    between atoms: _58  and  _61
REMARK   23  A    between atoms: _61  and  _62
REMARK   24  A    between atoms: _62  and  _63
REMARK   25  A    between atoms: _66  and  _68
REMARK   26  A    between atoms: _68  and  _69
REMARK   27  A    between atoms: _68  and  _71
REMARK   28  A    between atoms: _71  and  _72
REMARK   29  A    between atoms: _72  and  _73
REMARK   30  A    between atoms: _75  and  _77
REMARK   31  A    between atoms: _77  and  _78
REMARK   32  A    between atoms: _77  and  _80
REMARK   33  A    between atoms: _80  and  _81
REMARK   34  A    between atoms: _86  and  _87
REMARK   35  A    between atoms: _89  and  _91
REMARK   36  A    between atoms: _91  and  _92
REMARK   37  A    between atoms: _91  and  _94
REMARK   38  A    between atoms: _94  and  _95
REMARK   39  A    between atoms: _98  and  _100
REMARK   40  A    between atoms: _100  and  _101
REMARK   41  A    between atoms: _100  and  _103
REMARK   42  A    between atoms: _103  and  _104
REMARK   43  A    between atoms: _107  and  _109
REMARK   44  A    between atoms: _109  and  _110
REMARK   45  A    between atoms: _109  and  _112
REMARK   46  A    between atoms: _112  and  _113
REMARK   47  A    between atoms: _116  and  _118
REMARK   48  A    between atoms: _118  and  _119
REMARK   49  A    between atoms: _118  and  _121
REMARK   50  A    between atoms: _121  and  _122
REMARK   51  A    between atoms: _125  and  _127
REMARK   52  A    between atoms: _127  and  _128
REMARK   53  A    between atoms: _131  and  _133
REMARK   54  A    between atoms: _133  and  _134
REMARK   55  A    between atoms: _137  and  _139
REMARK   56  A    between atoms: _139  and  _140
REMARK   57  A    between atoms: _139  and  _142
REMARK   58  A    between atoms: _145  and  _147
REMARK   59  A    between atoms: _147  and  _148
REMARK   60  A    between atoms: _147  and  _150
REMARK   61  A    between atoms: _150  and  _151
REMARK   62  A    between atoms: _161  and  _163
REMARK   63  A    between atoms: _163  and  _164
REMARK   64  A    between atoms: _166  and  _168
REMARK   65  A    between atoms: _168  and  _169
REMARK   66  A    between atoms: _172  and  _174
REMARK   67  A    between atoms: _174  and  _175
REMARK   68  A    between atoms: _174  and  _177
REMARK   69  A    between atoms: _177  and  _178
REMARK   70  A    between atoms: _178  and  _179
REMARK   71  A    between atoms: _182  and  _184
REMARK   72  A    between atoms: _184  and  _185
REMARK   73  A    between atoms: _184  and  _187
REMARK   74  A    between atoms: _187  and  _188
REMARK   75  A    between atoms: _191  and  _193
REMARK   76  A    between atoms: _193  and  _194
REMARK   77  A    between atoms: _197  and  _199
REMARK   78  A    between atoms: _199  and  _200
REMARK   79  A    between atoms: _199  and  _202
REMARK   80  A    between atoms: _202  and  _203
REMARK   81  A    between atoms: _207  and  _208
REMARK   82  A    between atoms: _213  and  _215
REMARK   83  A    between atoms: _215  and  _216
REMARK   84  A    between atoms: _215  and  _218
REMARK   85  A    between atoms: _218  and  _219
REMARK   86  A    between atoms: _224  and  _226
REMARK   87  A    between atoms: _226  and  _227
REMARK   88  A    between atoms: _226  and  _229
REMARK   89  A    between atoms: _232  and  _234
REMARK   90  A    between atoms: _234  and  _235
REMARK   91  A    between atoms: _234  and  _237
REMARK   92  A    between atoms: _237  and  _238
REMARK   93  A    between atoms: _241  and  _243
REMARK   94  A    between atoms: _243  and  _244
REMARK   95  A    between atoms: _243  and  _246
REMARK   96  A    between atoms: _246  and  _247
REMARK   97  A    between atoms: _250  and  _252
REMARK   98  A    between atoms: _252  and  _253
REMARK   99  A    between atoms: _252  and  _255
REMARK  100  A    between atoms: _255  and  _256
REMARK  101  A    between atoms: _256  and  _257
REMARK  102  A    between atoms: _257  and  _258
REMARK  103  A    between atoms: _258  and  _259
REMARK  104  A    between atoms: _263  and  _265
REMARK  105  A    between atoms: _265  and  _266
REMARK  106  A    between atoms: _265  and  _268
REMARK  107  A    between atoms: _268  and  _269
REMARK  108  A    between atoms: _269  and  _270
REMARK  109  A    between atoms: _270  and  _271
REMARK  110  A    between atoms: _271  and  _272
REMARK  111  A    between atoms: _276  and  _278
REMARK  112  A    between atoms: _278  and  _279
REMARK  113  A    between atoms: _278  and  _281
REMARK  114  A    between atoms: _281  and  _282
REMARK  115  A    between atoms: _286  and  _287
REMARK  116  A    between atoms: _292  and  _294
REMARK  117  A    between atoms: _294  and  _295
REMARK  118  A    between atoms: _297  and  _299
REMARK  119  A    between atoms: _299  and  _300
REMARK  120  A    between atoms: _299  and  _302
REMARK  121  A    between atoms: _302  and  _303
REMARK  122  A    between atoms: _309  and  _310
REMARK  123  A    between atoms: _315  and  _317
REMARK  124  A    between atoms: _317  and  _318
REMARK  125  A    between atoms: _317  and  _320
REMARK  126  A    between atoms: _320  and  _321
REMARK  127  A    between atoms: _324  and  _326
REMARK  128  A    between atoms: _326  and  _327
REMARK  129  A    between atoms: _326  and  _329
REMARK  130  A    between atoms: _329  and  _330
REMARK  131  A    between atoms: _330  and  _331
REMARK  132  A    between atoms: _331  and  _332
REMARK  133  A    between atoms: _341  and  _343
REMARK  134  A    between atoms: _343  and  _344
REMARK  135  A    between atoms: _343  and  _346
REMARK  136  A    between atoms: _346  and  _347
REMARK  137  A    between atoms: _349  and  _351
REMARK  138  A    between atoms: _351  and  _352
REMARK  139  A    between atoms: _351  and  _354
REMARK  140  A    between atoms: _354  and  _355
REMARK  141  A    between atoms: _360  and  _361
REMARK  142  A    between atoms: _363  and  _365
REMARK  143  A    between atoms: _365  and  _366
REMARK  144  A    between atoms: _365  and  _368
REMARK  145  A    between atoms: _368  and  _369
REMARK  146  A    between atoms: _374  and  _376
REMARK  147  A    between atoms: _376  and  _377
REMARK  148  A    between atoms: _376  and  _379
REMARK  149  A    between atoms: _379  and  _380
REMARK  150  A    between atoms: _380  and  _381
REMARK  151  A    between atoms: _386  and  _388
REMARK  152  A    between atoms: _388  and  _389
REMARK  153  A    between atoms: _388  and  _391
REMARK  154  A    between atoms: _391  and  _392
REMARK  155  A    between atoms: _395  and  _397
REMARK  156  A    between atoms: _397  and  _398
REMARK  157  A    between atoms: _401  and  _403
REMARK  158  A    between atoms: _403  and  _404
REMARK  159  A    between atoms: _407  and  _409
REMARK  160  A    between atoms: _409  and  _410
REMARK  161  A    between atoms: _409  and  _412
REMARK  162  A    between atoms: _412  and  _413
REMARK  163  A    between atoms: _413  and  _414
REMARK  164  A    between atoms: _416  and  _418
REMARK  165  A    between atoms: _418  and  _419
REMARK  166  A    between atoms: _418  and  _421
REMARK  167  A    between atoms: _421  and  _422
REMARK  168  A    between atoms: _422  and  _423
REMARK  169  A    between atoms: _423  and  _424
REMARK  170  A    between atoms: _433  and  _435
REMARK  171  A    between atoms: _435  and  _436
REMARK  172  A    between atoms: _435  and  _438
REMARK  173  A    between atoms: _438  and  _439
REMARK  174  A    between atoms: _439  and  _440
REMARK  175  A    between atoms: _445  and  _447
REMARK  176  A    between atoms: _447  and  _448
REMARK  177  A    between atoms: _450  and  _452
REMARK  178  A    between atoms: _452  and  _453
REMARK  179  A    between atoms: _452  and  _455
REMARK  180  A    between atoms: _455  and  _456
REMARK  181  A    between atoms: _459  and  _461
REMARK  182  A    between atoms: _461  and  _462
REMARK  183  A    between atoms: _461  and  _464
REMARK  184  A    between atoms: _464  and  _465
REMARK  185  A    between atoms: _465  and  _466
REMARK  186  A    between atoms: _469  and  _471
REMARK  187  A    between atoms: _471  and  _472
REMARK  188  A    between atoms: _471  and  _474
REMARK  189  A    between atoms: _474  and  _475
REMARK  190  A    between atoms: _475  and  _476
REMARK  191  A    between atoms: _479  and  _481
REMARK  192  A    between atoms: _481  and  _482
REMARK  193  A    between atoms: _481  and  _484
REMARK  194  A    between atoms: _484  and  _485
REMARK  195  A    between atoms: _488  and  _490
REMARK  196  A    between atoms: _490  and  _491
REMARK  197  A    between atoms: _490  and  _493
REMARK  198  A    between atoms: _493  and  _494
REMARK  199  A    between atoms: _494  and  _495
REMARK  200  A    between atoms: _495  and  _496
REMARK  201  A    between atoms: _505  and  _507
REMARK  202  A    between atoms: _507  and  _508
REMARK  203  A    between atoms: _507  and  _510
REMARK  204  A    between atoms: _510  and  _511
REMARK  205  A    between atoms: _514  and  _516
REMARK  206  A    between atoms: _516  and  _517
REMARK  207  A    between atoms: _520  and  _522
REMARK  208  A    between atoms: _522  and  _523
REMARK  209  A    between atoms: _522  and  _525
REMARK  210  A    between atoms: _528  and  _530
REMARK  211  A    between atoms: _530  and  _531
REMARK  212  A    between atoms: _530  and  _533
REMARK  213  A    between atoms: _533  and  _534
REMARK  214  A    between atoms: _537  and  _539
REMARK  215  A    between atoms: _539  and  _540
REMARK  216  A    between atoms: _539  and  _542
REMARK  217  A    between atoms: _542  and  _543
REMARK  218  A    between atoms: _548  and  _549
REMARK                            x       y       z     vdW  Elec       q    Type
REMARK                         _______ _______ _______ _____ _____    ______ ____
ROOT
ATOM      1  O   HOH     1      -9.619  -0.356 -18.761  0.00  0.00    +0.000 OA
ENDROOT
TORSDOF 0
REMARK  Name = ../refined-set-2016/2hw2/2hw2_pocket.pdb
REMARK  218 active torsions:
REMARK  status: ('A' for Active; 'I' for Inactive)
REMARK    1  A    between atoms: _2  and  _3
REMARK    2  A    between atoms: _8  and  _10
REMARK    3  A    between atoms: _10  and  _11
REMARK    4  A    between atoms: _10  and  _13
REMARK    5  A    between atoms: _13  and  _14
REMARK    6  A    between atoms: _20  and  _22
REMARK    7  A    between atoms: _22  and  _23
REMARK    8  A    between atoms: _25  and  _27
REMARK    9  A    between atoms: _27  and  _28
REMARK   10  A    between atoms: _27  and  _30
REMARK   11  A    between atoms: _30  and  _31
REMARK   12  A    between atoms: _33  and  _35
REMARK   13  A    between atoms: _35  and  _36
REMARK   14  A    between atoms: _35  and  _38
REMARK   15  A    between atoms: _38  and  _39
REMARK   16  A    between atoms: _44  and  _46
REMARK   17  A    between atoms: _46  and  _47
REMARK   18  A    between atoms: _46  and  _49
REMARK   19  A    between atoms: _49  and  _50
REMARK   20  A    between atoms: _56  and  _58
REMARK   21  A    between atoms: _58  and  _59
REMARK   22  A    between atoms: _58  and  _61
REMARK   23  A    between atoms: _61  and  _62
REMARK   24  A    between atoms: _62  and  _63
REMARK   25  A    between atoms: _66  and  _68
REMARK   26  A    between atoms: _68  and  _69
REMARK   27  A    between atoms: _68  and  _71
REMARK   28  A    between atoms: _71  and  _72
REMARK   29  A    between atoms: _72  and  _73
REMARK   30  A    between atoms: _75  and  _77
REMARK   31  A    between atoms: _77  and  _78
REMARK   32  A    between atoms: _77  and  _80
REMARK   33  A    between atoms: _80  and  _81
REMARK   34  A    between atoms: _86  and  _87
REMARK   35  A    between atoms: _89  and  _91
REMARK   36  A    between atoms: _91  and  _92
REMARK   37  A    between atoms: _91  and  _94
REMARK   38  A    between atoms: _94  and  _95
REMARK   39  A    between atoms: _98  and  _100
REMARK   40  A    between atoms: _100  and  _101
REMARK   41  A    between atoms: _100  and  _103
REMARK   42  A    between atoms: _103  and  _104
REMARK   43  A    between atoms: _107  and  _109
REMARK   44  A    between atoms: _109  and  _110
REMARK   45  A    between atoms: _109  and  _112
REMARK   46  A    between atoms: _112  and  _113
REMARK   47  A    between atoms: _116  and  _118
REMARK   48  A    between atoms: _118  and  _119
REMARK   49  A    between atoms: _118  and  _121
REMARK   50  A    between atoms: _121  and  _122
REMARK   51  A    between atoms: _125  and  _127
REMARK   52  A    between atoms: _127  and  _128
REMARK   53  A    between atoms: _131  and  _133
REMARK   54  A    between atoms: _133  and  _134
REMARK   55  A    between atoms: _137  and  _139
REMARK   56  A    between atoms: _139  and  _140
REMARK   57  A    between atoms: _139  and  _142
REMARK   58  A    between atoms: _145  and  _147
REMARK   59  A    between atoms: _147  and  _148
REMARK   60  A    between atoms: _147  and  _150
REMARK   61  A    between atoms: _150  and  _151
REMARK   62  A    between atoms: _161  and  _163
REMARK   63  A    between atoms: _163  and  _164
REMARK   64  A    between atoms: _166  and  _168
REMARK   65  A    between atoms: _168  and  _169
REMARK   66  A    between atoms: _172  and  _174
REMARK   67  A    between atoms: _174  and  _175
REMARK   68  A    between atoms: _174  and  _177
REMARK   69  A    between atoms: _177  and  _178
REMARK   70  A    between atoms: _178  and  _179
REMARK   71  A    between atoms: _182  and  _184
REMARK   72  A    between atoms: _184  and  _185
REMARK   73  A    between atoms: _184  and  _187
REMARK   74  A    between atoms: _187  and  _188
REMARK   75  A    between atoms: _191  and  _193
REMARK   76  A    between atoms: _193  and  _194
REMARK   77  A    between atoms: _197  and  _199
REMARK   78  A    between atoms: _199  and  _200
REMARK   79  A    between atoms: _199  and  _202
REMARK   80  A    between atoms: _202  and  _203
REMARK   81  A    between atoms: _207  and  _208
REMARK   82  A    between atoms: _213  and  _215
REMARK   83  A    between atoms: _215  and  _216
REMARK   84  A    between atoms: _215  and  _218
REMARK   85  A    between atoms: _218  and  _219
REMARK   86  A    between atoms: _224  and  _226
REMARK   87  A    between atoms: _226  and  _227
REMARK   88  A    between atoms: _226  and  _229
REMARK   89  A    between atoms: _232  and  _234
REMARK   90  A    between atoms: _234  and  _235
REMARK   91  A    between atoms: _234  and  _237
REMARK   92  A    between atoms: _237  and  _238
REMARK   93  A    between atoms: _241  and  _243
REMARK   94  A    between atoms: _243  and  _244
REMARK   95  A    between atoms: _243  and  _246
REMARK   96  A    between atoms: _246  and  _247
REMARK   97  A    between atoms: _250  and  _252
REMARK   98  A    between atoms: _252  and  _253
REMARK   99  A    between atoms: _252  and  _255
REMARK  100  A    between atoms: _255  and  _256
REMARK  101  A    between atoms: _256  and  _257
REMARK  102  A    between atoms: _257  and  _258
REMARK  103  A    between atoms: _258  and  _259
REMARK  104  A    between atoms: _263  and  _265
REMARK  105  A    between atoms: _265  and  _266
REMARK  106  A    between atoms: _265  and  _268
REMARK  107  A    between atoms: _268  and  _269
REMARK  108  A    between atoms: _269  and  _270
REMARK  109  A    between atoms: _270  and  _271
REMARK  110  A    between atoms: _271  and  _272
REMARK  111  A    between atoms: _276  and  _278
REMARK  112  A    between atoms: _278  and  _279
REMARK  113  A    between atoms: _278  and  _281
REMARK  114  A    between atoms: _281  and  _282
REMARK  115  A    between atoms: _286  and  _287
REMARK  116  A    between atoms: _292  and  _294
REMARK  117  A    between atoms: _294  and  _295
REMARK  118  A    between atoms: _297  and  _299
REMARK  119  A    between atoms: _299  and  _300
REMARK  120  A    between atoms: _299  and  _302
REMARK  121  A    between atoms: _302  and  _303
REMARK  122  A    between atoms: _309  and  _310
REMARK  123  A    between atoms: _315  and  _317
REMARK  124  A    between atoms: _317  and  _318
REMARK  125  A    between atoms: _317  and  _320
REMARK  126  A    between atoms: _320  and  _321
REMARK  127  A    between atoms: _324  and  _326
REMARK  128  A    between atoms: _326  and  _327
REMARK  129  A    between atoms: _326  and  _329
REMARK  130  A    between atoms: _329  and  _330
REMARK  131  A    between atoms: _330  and  _331
REMARK  132  A    between atoms: _331  and  _332
REMARK  133  A    between atoms: _341  and  _343
REMARK  134  A    between atoms: _343  and  _344
REMARK  135  A    between atoms: _343  and  _346
REMARK  136  A    between atoms: _346  and  _347
REMARK  137  A    between atoms: _349  and  _351
REMARK  138  A    between atoms: _351  and  _352
REMARK  139  A    between atoms: _351  and  _354
REMARK  140  A    between atoms: _354  and  _355
REMARK  141  A    between atoms: _360  and  _361
REMARK  142  A    between atoms: _363  and  _365
REMARK  143  A    between atoms: _365  and  _366
REMARK  144  A    between atoms: _365  and  _368
REMARK  145  A    between atoms: _368  and  _369
REMARK  146  A    between atoms: _374  and  _376
REMARK  147  A    between atoms: _376  and  _377
REMARK  148  A    between atoms: _376  and  _379
REMARK  149  A    between atoms: _379  and  _380
REMARK  150  A    between atoms: _380  and  _381
REMARK  151  A    between atoms: _386  and  _388
REMARK  152  A    between atoms: _388  and  _389
REMARK  153  A    between atoms: _388  and  _391
REMARK  154  A    between atoms: _391  and  _392
REMARK  155  A    between atoms: _395  and  _397
REMARK  156  A    between atoms: _397  and  _398
REMARK  157  A    between atoms: _401  and  _403
REMARK  158  A    between atoms: _403  and  _404
REMARK  159  A    between atoms: _407  and  _409
REMARK  160  A    between atoms: _409  and  _410
REMARK  161  A    between atoms: _409  and  _412
REMARK  162  A    between atoms: _412  and  _413
REMARK  163  A    between atoms: _413  and  _414
REMARK  164  A    between atoms: _416  and  _418
REMARK  165  A    between atoms: _418  and  _419
REMARK  166  A    between atoms: _418  and  _421
REMARK  167  A    between atoms: _421  and  _422
REMARK  168  A    between atoms: _422  and  _423
REMARK  169  A    between atoms: _423  and  _424
REMARK  170  A    between atoms: _433  and  _435
REMARK  171  A    between atoms: _435  and  _436
REMARK  172  A    between atoms: _435  and  _438
REMARK  173  A    between atoms: _438  and  _439
REMARK  174  A    between atoms: _439  and  _440
REMARK  175  A    between atoms: _445  and  _447
REMARK  176  A    between atoms: _447  and  _448
REMARK  177  A    between atoms: _450  and  _452
REMARK  178  A    between atoms: _452  and  _453
REMARK  179  A    between atoms: _452  and  _455
REMARK  180  A    between atoms: _455  and  _456
REMARK  181  A    between atoms: _459  and  _461
REMARK  182  A    between atoms: _461  and  _462
REMARK  183  A    between atoms: _461  and  _464
REMARK  184  A    between atoms: _464  and  _465
REMARK  185  A    between atoms: _465  and  _466
REMARK  186  A    between atoms: _469  and  _471
REMARK  187  A    between atoms: _471  and  _472
REMARK  188  A    between atoms: _471  and  _474
REMARK  189  A    between atoms: _474  and  _475
REMARK  190  A    between atoms: _475  and  _476
REMARK  191  A    between atoms: _479  and  _481
REMARK  192  A    between atoms: _481  and  _482
REMARK  193  A    between atoms: _481  and  _484
REMARK  194  A    between atoms: _484  and  _485
REMARK  195  A    between atoms: _488  and  _490
REMARK  196  A    between atoms: _490  and  _491
REMARK  197  A    between atoms: _490  and  _493
REMARK  198  A    between atoms: _493  and  _494
REMARK  199  A    between atoms: _494  and  _495
REMARK  200  A    between atoms: _495  and  _496
REMARK  201  A    between atoms: _505  and  _507
REMARK  202  A    between atoms: _507  and  _508
REMARK  203  A    between atoms: _507  and  _510
REMARK  204  A    between atoms: _510  and  _511
REMARK  205  A    between atoms: _514  and  _516
REMARK  206  A    between atoms: _516  and  _517
REMARK  207  A    between atoms: _520  and  _522
REMARK  208  A    between atoms: _522  and  _523
REMARK  209  A    between atoms: _522  and  _525
REMARK  210  A    between atoms: _528  and  _530
REMARK  211  A    between atoms: _530  and  _531
REMARK  212  A    between atoms: _530  and  _533
REMARK  213  A    between atoms: _533  and  _534
REMARK  214  A    between atoms: _537  and  _539
REMARK  215  A    between atoms: _539  and  _540
REMARK  216  A    between atoms: _539  and  _542
REMARK  217  A    between atoms: _542  and  _543
REMARK  218  A    between atoms: _548  and  _549
REMARK                            x       y       z     vdW  Elec       q    Type
REMARK                         _______ _______ _______ _____ _____    ______ ____
ROOT
ATOM      1  O   HOH     1      -9.680   2.092 -23.083  0.00  0.00    +0.000 OA
ENDROOT
TORSDOF 0
REMARK  Name = ../refined-set-2016/2hw2/2hw2_pocket.pdb
REMARK  218 active torsions:
REMARK  status: ('A' for Active; 'I' for Inactive)
REMARK    1  A    between atoms: _2  and  _3
REMARK    2  A    between atoms: _8  and  _10
REMARK    3  A    between atoms: _10  and  _11
REMARK    4  A    between atoms: _10  and  _13
REMARK    5  A    between atoms: _13  and  _14
REMARK    6  A    between atoms: _20  and  _22
REMARK    7  A    between atoms: _22  and  _23
REMARK    8  A    between atoms: _25  and  _27
REMARK    9  A    between atoms: _27  and  _28
REMARK   10  A    between atoms: _27  and  _30
REMARK   11  A    between atoms: _30  and  _31
REMARK   12  A    between atoms: _33  and  _35
REMARK   13  A    between atoms: _35  and  _36
REMARK   14  A    between atoms: _35  and  _38
REMARK   15  A    between atoms: _38  and  _39
REMARK   16  A    between atoms: _44  and  _46
REMARK   17  A    between atoms: _46  and  _47
REMARK   18  A    between atoms: _46  and  _49
REMARK   19  A    between atoms: _49  and  _50
REMARK   20  A    between atoms: _56  and  _58
REMARK   21  A    between atoms: _58  and  _59
REMARK   22  A    between atoms: _58  and  _61
REMARK   23  A    between atoms: _61  and  _62
REMARK   24  A    between atoms: _62  and  _63
REMARK   25  A    between atoms: _66  and  _68
REMARK   26  A    between atoms: _68  and  _69
REMARK   27  A    between atoms: _68  and  _71
REMARK   28  A    between atoms: _71  and  _72
REMARK   29  A    between atoms: _72  and  _73
REMARK   30  A    between atoms: _75  and  _77
REMARK   31  A    between atoms: _77  and  _78
REMARK   32  A    between atoms: _77  and  _80
REMARK   33  A    between atoms: _80  and  _81
REMARK   34  A    between atoms: _86  and  _87
REMARK   35  A    between atoms: _89  and  _91
REMARK   36  A    between atoms: _91  and  _92
REMARK   37  A    between atoms: _91  and  _94
REMARK   38  A    between atoms: _94  and  _95
REMARK   39  A    between atoms: _98  and  _100
REMARK   40  A    between atoms: _100  and  _101
REMARK   41  A    between atoms: _100  and  _103
REMARK   42  A    between atoms: _103  and  _104
REMARK   43  A    between atoms: _107  and  _109
REMARK   44  A    between atoms: _109  and  _110
REMARK   45  A    between atoms: _109  and  _112
REMARK   46  A    between atoms: _112  and  _113
REMARK   47  A    between atoms: _116  and  _118
REMARK   48  A    between atoms: _118  and  _119
REMARK   49  A    between atoms: _118  and  _121
REMARK   50  A    between atoms: _121  and  _122
REMARK   51  A    between atoms: _125  and  _127
REMARK   52  A    between atoms: _127  and  _128
REMARK   53  A    between atoms: _131  and  _133
REMARK   54  A    between atoms: _133  and  _134
REMARK   55  A    between atoms: _137  and  _139
REMARK   56  A    between atoms: _139  and  _140
REMARK   57  A    between atoms: _139  and  _142
REMARK   58  A    between atoms: _145  and  _147
REMARK   59  A    between atoms: _147  and  _148
REMARK   60  A    between atoms: _147  and  _150
REMARK   61  A    between atoms: _150  and  _151
REMARK   62  A    between atoms: _161  and  _163
REMARK   63  A    between atoms: _163  and  _164
REMARK   64  A    between atoms: _166  and  _168
REMARK   65  A    between atoms: _168  and  _169
REMARK   66  A    between atoms: _172  and  _174
REMARK   67  A    between atoms: _174  and  _175
REMARK   68  A    between atoms: _174  and  _177
REMARK   69  A    between atoms: _177  and  _178
REMARK   70  A    between atoms: _178  and  _179
REMARK   71  A    between atoms: _182  and  _184
REMARK   72  A    between atoms: _184  and  _185
REMARK   73  A    between atoms: _184  and  _187
REMARK   74  A    between atoms: _187  and  _188
REMARK   75  A    between atoms: _191  and  _193
REMARK   76  A    between atoms: _193  and  _194
REMARK   77  A    between atoms: _197  and  _199
REMARK   78  A    between atoms: _199  and  _200
REMARK   79  A    between atoms: _199  and  _202
REMARK   80  A    between atoms: _202  and  _203
REMARK   81  A    between atoms: _207  and  _208
REMARK   82  A    between atoms: _213  and  _215
REMARK   83  A    between atoms: _215  and  _216
REMARK   84  A    between atoms: _215  and  _218
REMARK   85  A    between atoms: _218  and  _219
REMARK   86  A    between atoms: _224  and  _226
REMARK   87  A    between atoms: _226  and  _227
REMARK   88  A    between atoms: _226  and  _229
REMARK   89  A    between atoms: _232  and  _234
REMARK   90  A    between atoms: _234  and  _235
REMARK   91  A    between atoms: _234  and  _237
REMARK   92  A    between atoms: _237  and  _238
REMARK   93  A    between atoms: _241  and  _243
REMARK   94  A    between atoms: _243  and  _244
REMARK   95  A    between atoms: _243  and  _246
REMARK   96  A    between atoms: _246  and  _247
REMARK   97  A    between atoms: _250  and  _252
REMARK   98  A    between atoms: _252  and  _253
REMARK   99  A    between atoms: _252  and  _255
REMARK  100  A    between atoms: _255  and  _256
REMARK  101  A    between atoms: _256  and  _257
REMARK  102  A    between atoms: _257  and  _258
REMARK  103  A    between atoms: _258  and  _259
REMARK  104  A    between atoms: _263  and  _265
REMARK  105  A    between atoms: _265  and  _266
REMARK  106  A    between atoms: _265  and  _268
REMARK  107  A    between atoms: _268  and  _269
REMARK  108  A    between atoms: _269  and  _270
REMARK  109  A    between atoms: _270  and  _271
REMARK  110  A    between atoms: _271  and  _272
REMARK  111  A    between atoms: _276  and  _278
REMARK  112  A    between atoms: _278  and  _279
REMARK  113  A    between atoms: _278  and  _281
REMARK  114  A    between atoms: _281  and  _282
REMARK  115  A    between atoms: _286  and  _287
REMARK  116  A    between atoms: _292  and  _294
REMARK  117  A    between atoms: _294  and  _295
REMARK  118  A    between atoms: _297  and  _299
REMARK  119  A    between atoms: _299  and  _300
REMARK  120  A    between atoms: _299  and  _302
REMARK  121  A    between atoms: _302  and  _303
REMARK  122  A    between atoms: _309  and  _310
REMARK  123  A    between atoms: _315  and  _317
REMARK  124  A    between atoms: _317  and  _318
REMARK  125  A    between atoms: _317  and  _320
REMARK  126  A    between atoms: _320  and  _321
REMARK  127  A    between atoms: _324  and  _326
REMARK  128  A    between atoms: _326  and  _327
REMARK  129  A    between atoms: _326  and  _329
REMARK  130  A    between atoms: _329  and  _330
REMARK  131  A    between atoms: _330  and  _331
REMARK  132  A    between atoms: _331  and  _332
REMARK  133  A    between atoms: _341  and  _343
REMARK  134  A    between atoms: _343  and  _344
REMARK  135  A    between atoms: _343  and  _346
REMARK  136  A    between atoms: _346  and  _347
REMARK  137  A    between atoms: _349  and  _351
REMARK  138  A    between atoms: _351  and  _352
REMARK  139  A    between atoms: _351  and  _354
REMARK  140  A    between atoms: _354  and  _355
REMARK  141  A    between atoms: _360  and  _361
REMARK  142  A    between atoms: _363  and  _365
REMARK  143  A    between atoms: _365  and  _366
REMARK  144  A    between atoms: _365  and  _368
REMARK  145  A    between atoms: _368  and  _369
REMARK  146  A    between atoms: _374  and  _376
REMARK  147  A    between atoms: _376  and  _377
REMARK  148  A    between atoms: _376  and  _379
REMARK  149  A    between atoms: _379  and  _380
REMARK  150  A    between atoms: _380  and  _381
REMARK  151  A    between atoms: _386  and  _388
REMARK  152  A    between atoms: _388  and  _389
REMARK  153  A    between atoms: _388  and  _391
REMARK  154  A    between atoms: _391  and  _392
REMARK  155  A    between atoms: _395  and  _397
REMARK  156  A    between atoms: _397  and  _398
REMARK  157  A    between atoms: _401  and  _403
REMARK  158  A    between atoms: _403  and  _404
REMARK  159  A    between atoms: _407  and  _409
REMARK  160  A    between atoms: _409  and  _410
REMARK  161  A    between atoms: _409  and  _412
REMARK  162  A    between atoms: _412  and  _413
REMARK  163  A    between atoms: _413  and  _414
REMARK  164  A    between atoms: _416  and  _418
REMARK  165  A    between atoms: _418  and  _419
REMARK  166  A    between atoms: _418  and  _421
REMARK  167  A    between atoms: _421  and  _422
REMARK  168  A    between atoms: _422  and  _423
REMARK  169  A    between atoms: _423  and  _424
REMARK  170  A    between atoms: _433  and  _435
REMARK  171  A    between atoms: _435  and  _436
REMARK  172  A    between atoms: _435  and  _438
REMARK  173  A    between atoms: _438  and  _439
REMARK  174  A    between atoms: _439  and  _440
REMARK  175  A    between atoms: _445  and  _447
REMARK  176  A    between atoms: _447  and  _448
REMARK  177  A    between atoms: _450  and  _452
REMARK  178  A    between atoms: _452  and  _453
REMARK  179  A    between atoms: _452  and  _455
REMARK  180  A    between atoms: _455  and  _456
REMARK  181  A    between atoms: _459  and  _461
REMARK  182  A    between atoms: _461  and  _462
REMARK  183  A    between atoms: _461  and  _464
REMARK  184  A    between atoms: _464  and  _465
REMARK  185  A    between atoms: _465  and  _466
REMARK  186  A    between atoms: _469  and  _471
REMARK  187  A    between atoms: _471  and  _472
REMARK  188  A    between atoms: _471  and  _474
REMARK  189  A    between atoms: _474  and  _475
REMARK  190  A    between atoms: _475  and  _476
REMARK  191  A    between atoms: _479  and  _481
REMARK  192  A    between atoms: _481  and  _482
REMARK  193  A    between atoms: _481  and  _484
REMARK  194  A    between atoms: _484  and  _485
REMARK  195  A    between atoms: _488  and  _490
REMARK  196  A    between atoms: _490  and  _491
REMARK  197  A    between atoms: _490  and  _493
REMARK  198  A    between atoms: _493  and  _494
REMARK  199  A    between atoms: _494  and  _495
REMARK  200  A    between atoms: _495  and  _496
REMARK  201  A    between atoms: _505  and  _507
REMARK  202  A    between atoms: _507  and  _508
REMARK  203  A    between atoms: _507  and  _510
REMARK  204  A    between atoms: _510  and  _511
REMARK  205  A    between atoms: _514  and  _516
REMARK  206  A    between atoms: _516  and  _517
REMARK  207  A    between atoms: _520  and  _522
REMARK  208  A    between atoms: _522  and  _523
REMARK  209  A    between atoms: _522  and  _525
REMARK  210  A    between atoms: _528  and  _530
REMARK  211  A    between atoms: _530  and  _531
REMARK  212  A    between atoms: _530  and  _533
REMARK  213  A    between atoms: _533  and  _534
REMARK  214  A    between atoms: _537  and  _539
REMARK  215  A    between atoms: _539  and  _540
REMARK  216  A    between atoms: _539  and  _542
REMARK  217  A    between atoms: _542  and  _543
REMARK  218  A    between atoms: _548  and  _549
REMARK                            x       y       z     vdW  Elec       q    Type
REMARK                         _______ _______ _______ _____ _____    ______ ____
ROOT
ATOM      1  O   HOH     1     -15.949   6.119 -21.476  0.00  0.00    +0.000 OA
ENDROOT
TORSDOF 0
REMARK  Name = ../refined-set-2016/2hw2/2hw2_pocket.pdb
REMARK  218 active torsions:
REMARK  status: ('A' for Active; 'I' for Inactive)
REMARK    1  A    between atoms: _2  and  _3
REMARK    2  A    between atoms: _8  and  _10
REMARK    3  A    between atoms: _10  and  _11
REMARK    4  A    between atoms: _10  and  _13
REMARK    5  A    between atoms: _13  and  _14
REMARK    6  A    between atoms: _20  and  _22
REMARK    7  A    between atoms: _22  and  _23
REMARK    8  A    between atoms: _25  and  _27
REMARK    9  A    between atoms: _27  and  _28
REMARK   10  A    between atoms: _27  and  _30
REMARK   11  A    between atoms: _30  and  _31
REMARK   12  A    between atoms: _33  and  _35
REMARK   13  A    between atoms: _35  and  _36
REMARK   14  A    between atoms: _35  and  _38
REMARK   15  A    between atoms: _38  and  _39
REMARK   16  A    between atoms: _44  and  _46
REMARK   17  A    between atoms: _46  and  _47
REMARK   18  A    between atoms: _46  and  _49
REMARK   19  A    between atoms: _49  and  _50
REMARK   20  A    between atoms: _56  and  _58
REMARK   21  A    between atoms: _58  and  _59
REMARK   22  A    between atoms: _58  and  _61
REMARK   23  A    between atoms: _61  and  _62
REMARK   24  A    between atoms: _62  and  _63
REMARK   25  A    between atoms: _66  and  _68
REMARK   26  A    between atoms: _68  and  _69
REMARK   27  A    between atoms: _68  and  _71
REMARK   28  A    between atoms: _71  and  _72
REMARK   29  A    between atoms: _72  and  _73
REMARK   30  A    between atoms: _75  and  _77
REMARK   31  A    between atoms: _77  and  _78
REMARK   32  A    between atoms: _77  and  _80
REMARK   33  A    between atoms: _80  and  _81
REMARK   34  A    between atoms: _86  and  _87
REMARK   35  A    between atoms: _89  and  _91
REMARK   36  A    between atoms: _91  and  _92
REMARK   37  A    between atoms: _91  and  _94
REMARK   38  A    between atoms: _94  and  _95
REMARK   39  A    between atoms: _98  and  _100
REMARK   40  A    between atoms: _100  and  _101
REMARK   41  A    between atoms: _100  and  _103
REMARK   42  A    between atoms: _103  and  _104
REMARK   43  A    between atoms: _107  and  _109
REMARK   44  A    between atoms: _109  and  _110
REMARK   45  A    between atoms: _109  and  _112
REMARK   46  A    between atoms: _112  and  _113
REMARK   47  A    between atoms: _116  and  _118
REMARK   48  A    between atoms: _118  and  _119
REMARK   49  A    between atoms: _118  and  _121
REMARK   50  A    between atoms: _121  and  _122
REMARK   51  A    between atoms: _125  and  _127
REMARK   52  A    between atoms: _127  and  _128
REMARK   53  A    between atoms: _131  and  _133
REMARK   54  A    between atoms: _133  and  _134
REMARK   55  A    between atoms: _137  and  _139
REMARK   56  A    between atoms: _139  and  _140
REMARK   57  A    between atoms: _139  and  _142
REMARK   58  A    between atoms: _145  and  _147
REMARK   59  A    between atoms: _147  and  _148
REMARK   60  A    between atoms: _147  and  _150
REMARK   61  A    between atoms: _150  and  _151
REMARK   62  A    between atoms: _161  and  _163
REMARK   63  A    between atoms: _163  and  _164
REMARK   64  A    between atoms: _166  and  _168
REMARK   65  A    between atoms: _168  and  _169
REMARK   66  A    between atoms: _172  and  _174
REMARK   67  A    between atoms: _174  and  _175
REMARK   68  A    between atoms: _174  and  _177
REMARK   69  A    between atoms: _177  and  _178
REMARK   70  A    between atoms: _178  and  _179
REMARK   71  A    between atoms: _182  and  _184
REMARK   72  A    between atoms: _184  and  _185
REMARK   73  A    between atoms: _184  and  _187
REMARK   74  A    between atoms: _187  and  _188
REMARK   75  A    between atoms: _191  and  _193
REMARK   76  A    between atoms: _193  and  _194
REMARK   77  A    between atoms: _197  and  _199
REMARK   78  A    between atoms: _199  and  _200
REMARK   79  A    between atoms: _199  and  _202
REMARK   80  A    between atoms: _202  and  _203
REMARK   81  A    between atoms: _207  and  _208
REMARK   82  A    between atoms: _213  and  _215
REMARK   83  A    between atoms: _215  and  _216
REMARK   84  A    between atoms: _215  and  _218
REMARK   85  A    between atoms: _218  and  _219
REMARK   86  A    between atoms: _224  and  _226
REMARK   87  A    between atoms: _226  and  _227
REMARK   88  A    between atoms: _226  and  _229
REMARK   89  A    between atoms: _232  and  _234
REMARK   90  A    between atoms: _234  and  _235
REMARK   91  A    between atoms: _234  and  _237
REMARK   92  A    between atoms: _237  and  _238
REMARK   93  A    between atoms: _241  and  _243
REMARK   94  A    between atoms: _243  and  _244
REMARK   95  A    between atoms: _243  and  _246
REMARK   96  A    between atoms: _246  and  _247
REMARK   97  A    between atoms: _250  and  _252
REMARK   98  A    between atoms: _252  and  _253
REMARK   99  A    between atoms: _252  and  _255
REMARK  100  A    between atoms: _255  and  _256
REMARK  101  A    between atoms: _256  and  _257
REMARK  102  A    between atoms: _257  and  _258
REMARK  103  A    between atoms: _258  and  _259
REMARK  104  A    between atoms: _263  and  _265
REMARK  105  A    between atoms: _265  and  _266
REMARK  106  A    between atoms: _265  and  _268
REMARK  107  A    between atoms: _268  and  _269
REMARK  108  A    between atoms: _269  and  _270
REMARK  109  A    between atoms: _270  and  _271
REMARK  110  A    between atoms: _271  and  _272
REMARK  111  A    between atoms: _276  and  _278
REMARK  112  A    between atoms: _278  and  _279
REMARK  113  A    between atoms: _278  and  _281
REMARK  114  A    between atoms: _281  and  _282
REMARK  115  A    between atoms: _286  and  _287
REMARK  116  A    between atoms: _292  and  _294
REMARK  117  A    between atoms: _294  and  _295
REMARK  118  A    between atoms: _297  and  _299
REMARK  119  A    between atoms: _299  and  _300
REMARK  120  A    between atoms: _299  and  _302
REMARK  121  A    between atoms: _302  and  _303
REMARK  122  A    between atoms: _309  and  _310
REMARK  123  A    between atoms: _315  and  _317
REMARK  124  A    between atoms: _317  and  _318
REMARK  125  A    between atoms: _317  and  _320
REMARK  126  A    between atoms: _320  and  _321
REMARK  127  A    between atoms: _324  and  _326
REMARK  128  A    between atoms: _326  and  _327
REMARK  129  A    between atoms: _326  and  _329
REMARK  130  A    between atoms: _329  and  _330
REMARK  131  A    between atoms: _330  and  _331
REMARK  132  A    between atoms: _331  and  _332
REMARK  133  A    between atoms: _341  and  _343
REMARK  134  A    between atoms: _343  and  _344
REMARK  135  A    between atoms: _343  and  _346
REMARK  136  A    between atoms: _346  and  _347
REMARK  137  A    between atoms: _349  and  _351
REMARK  138  A    between atoms: _351  and  _352
REMARK  139  A    between atoms: _351  and  _354
REMARK  140  A    between atoms: _354  and  _355
REMARK  141  A    between atoms: _360  and  _361
REMARK  142  A    between atoms: _363  and  _365
REMARK  143  A    between atoms: _365  and  _366
REMARK  144  A    between atoms: _365  and  _368
REMARK  145  A    between atoms: _368  and  _369
REMARK  146  A    between atoms: _374  and  _376
REMARK  147  A    between atoms: _376  and  _377
REMARK  148  A    between atoms: _376  and  _379
REMARK  149  A    between atoms: _379  and  _380
REMARK  150  A    between atoms: _380  and  _381
REMARK  151  A    between atoms: _386  and  _388
REMARK  152  A    between atoms: _388  and  _389
REMARK  153  A    between atoms: _388  and  _391
REMARK  154  A    between atoms: _391  and  _392
REMARK  155  A    between atoms: _395  and  _397
REMARK  156  A    between atoms: _397  and  _398
REMARK  157  A    between atoms: _401  and  _403
REMARK  158  A    between atoms: _403  and  _404
REMARK  159  A    between atoms: _407  and  _409
REMARK  160  A    between atoms: _409  and  _410
REMARK  161  A    between atoms: _409  and  _412
REMARK  162  A    between atoms: _412  and  _413
REMARK  163  A    between atoms: _413  and  _414
REMARK  164  A    between atoms: _416  and  _418
REMARK  165  A    between atoms: _418  and  _419
REMARK  166  A    between atoms: _418  and  _421
REMARK  167  A    between atoms: _421  and  _422
REMARK  168  A    between atoms: _422  and  _423
REMARK  169  A    between atoms: _423  and  _424
REMARK  170  A    between atoms: _433  and  _435
REMARK  171  A    between atoms: _435  and  _436
REMARK  172  A    between atoms: _435  and  _438
REMARK  173  A    between atoms: _438  and  _439
REMARK  174  A    between atoms: _439  and  _440
REMARK  175  A    between atoms: _445  and  _447
REMARK  176  A    between atoms: _447  and  _448
REMARK  177  A    between atoms: _450  and  _452
REMARK  178  A    between atoms: _452  and  _453
REMARK  179  A    between atoms: _452  and  _455
REMARK  180  A    between atoms: _455  and  _456
REMARK  181  A    between atoms: _459  and  _461
REMARK  182  A    between atoms: _461  and  _462
REMARK  183  A    between atoms: _461  and  _464
REMARK  184  A    between atoms: _464  and  _465
REMARK  185  A    between atoms: _465  and  _466
REMARK  186  A    between atoms: _469  and  _471
REMARK  187  A    between atoms: _471  and  _472
REMARK  188  A    between atoms: _471  and  _474
REMARK  189  A    between atoms: _474  and  _475
REMARK  190  A    between atoms: _475  and  _476
REMARK  191  A    between atoms: _479  and  _481
REMARK  192  A    between atoms: _481  and  _482
REMARK  193  A    between atoms: _481  and  _484
REMARK  194  A    between atoms: _484  and  _485
REMARK  195  A    between atoms: _488  and  _490
REMARK  196  A    between atoms: _490  and  _491
REMARK  197  A    between atoms: _490  and  _493
REMARK  198  A    between atoms: _493  and  _494
REMARK  199  A    between atoms: _494  and  _495
REMARK  200  A    between atoms: _495  and  _496
REMARK  201  A    between atoms: _505  and  _507
REMARK  202  A    between atoms: _507  and  _508
REMARK  203  A    between atoms: _507  and  _510
REMARK  204  A    between atoms: _510  and  _511
REMARK  205  A    between atoms: _514  and  _516
REMARK  206  A    between atoms: _516  and  _517
REMARK  207  A    between atoms: _520  and  _522
REMARK  208  A    between atoms: _522  and  _523
REMARK  209  A    between atoms: _522  and  _525
REMARK  210  A    between atoms: _528  and  _530
REMARK  211  A    between atoms: _530  and  _531
REMARK  212  A    between atoms: _530  and  _533
REMARK  213  A    between atoms: _533  and  _534
REMARK  214  A    between atoms: _537  and  _539
REMARK  215  A    between atoms: _539  and  _540
REMARK  216  A    between atoms: _539  and  _542
REMARK  217  A    between atoms: _542  and  _543
REMARK  218  A    between atoms: _548  and  _549
REMARK                            x       y       z     vdW  Elec       q    Type
REMARK                         _______ _______ _______ _____ _____    ______ ____
ROOT
ATOM      1  O   HOH     1     -14.505   1.528 -10.726  0.00  0.00    +0.000 OA
ENDROOT
TORSDOF 0
REMARK  Name = ../refined-set-2016/2hw2/2hw2_pocket.pdb
REMARK  218 active torsions:
REMARK  status: ('A' for Active; 'I' for Inactive)
REMARK    1  A    between atoms: _2  and  _3
REMARK    2  A    between atoms: _8  and  _10
REMARK    3  A    between atoms: _10  and  _11
REMARK    4  A    between atoms: _10  and  _13
REMARK    5  A    between atoms: _13  and  _14
REMARK    6  A    between atoms: _20  and  _22
REMARK    7  A    between atoms: _22  and  _23
REMARK    8  A    between atoms: _25  and  _27
REMARK    9  A    between atoms: _27  and  _28
REMARK   10  A    between atoms: _27  and  _30
REMARK   11  A    between atoms: _30  and  _31
REMARK   12  A    between atoms: _33  and  _35
REMARK   13  A    between atoms: _35  and  _36
REMARK   14  A    between atoms: _35  and  _38
REMARK   15  A    between atoms: _38  and  _39
REMARK   16  A    between atoms: _44  and  _46
REMARK   17  A    between atoms: _46  and  _47
REMARK   18  A    between atoms: _46  and  _49
REMARK   19  A    between atoms: _49  and  _50
REMARK   20  A    between atoms: _56  and  _58
REMARK   21  A    between atoms: _58  and  _59
REMARK   22  A    between atoms: _58  and  _61
REMARK   23  A    between atoms: _61  and  _62
REMARK   24  A    between atoms: _62  and  _63
REMARK   25  A    between atoms: _66  and  _68
REMARK   26  A    between atoms: _68  and  _69
REMARK   27  A    between atoms: _68  and  _71
REMARK   28  A    between atoms: _71  and  _72
REMARK   29  A    between atoms: _72  and  _73
REMARK   30  A    between atoms: _75  and  _77
REMARK   31  A    between atoms: _77  and  _78
REMARK   32  A    between atoms: _77  and  _80
REMARK   33  A    between atoms: _80  and  _81
REMARK   34  A    between atoms: _86  and  _87
REMARK   35  A    between atoms: _89  and  _91
REMARK   36  A    between atoms: _91  and  _92
REMARK   37  A    between atoms: _91  and  _94
REMARK   38  A    between atoms: _94  and  _95
REMARK   39  A    between atoms: _98  and  _100
REMARK   40  A    between atoms: _100  and  _101
REMARK   41  A    between atoms: _100  and  _103
REMARK   42  A    between atoms: _103  and  _104
REMARK   43  A    between atoms: _107  and  _109
REMARK   44  A    between atoms: _109  and  _110
REMARK   45  A    between atoms: _109  and  _112
REMARK   46  A    between atoms: _112  and  _113
REMARK   47  A    between atoms: _116  and  _118
REMARK   48  A    between atoms: _118  and  _119
REMARK   49  A    between atoms: _118  and  _121
REMARK   50  A    between atoms: _121  and  _122
REMARK   51  A    between atoms: _125  and  _127
REMARK   52  A    between atoms: _127  and  _128
REMARK   53  A    between atoms: _131  and  _133
REMARK   54  A    between atoms: _133  and  _134
REMARK   55  A    between atoms: _137  and  _139
REMARK   56  A    between atoms: _139  and  _140
REMARK   57  A    between atoms: _139  and  _142
REMARK   58  A    between atoms: _145  and  _147
REMARK   59  A    between atoms: _147  and  _148
REMARK   60  A    between atoms: _147  and  _150
REMARK   61  A    between atoms: _150  and  _151
REMARK   62  A    between atoms: _161  and  _163
REMARK   63  A    between atoms: _163  and  _164
REMARK   64  A    between atoms: _166  and  _168
REMARK   65  A    between atoms: _168  and  _169
REMARK   66  A    between atoms: _172  and  _174
REMARK   67  A    between atoms: _174  and  _175
REMARK   68  A    between atoms: _174  and  _177
REMARK   69  A    between atoms: _177  and  _178
REMARK   70  A    between atoms: _178  and  _179
REMARK   71  A    between atoms: _182  and  _184
REMARK   72  A    between atoms: _184  and  _185
REMARK   73  A    between atoms: _184  and  _187
REMARK   74  A    between atoms: _187  and  _188
REMARK   75  A    between atoms: _191  and  _193
REMARK   76  A    between atoms: _193  and  _194
REMARK   77  A    between atoms: _197  and  _199
REMARK   78  A    between atoms: _199  and  _200
REMARK   79  A    between atoms: _199  and  _202
REMARK   80  A    between atoms: _202  and  _203
REMARK   81  A    between atoms: _207  and  _208
REMARK   82  A    between atoms: _213  and  _215
REMARK   83  A    between atoms: _215  and  _216
REMARK   84  A    between atoms: _215  and  _218
REMARK   85  A    between atoms: _218  and  _219
REMARK   86  A    between atoms: _224  and  _226
REMARK   87  A    between atoms: _226  and  _227
REMARK   88  A    between atoms: _226  and  _229
REMARK   89  A    between atoms: _232  and  _234
REMARK   90  A    between atoms: _234  and  _235
REMARK   91  A    between atoms: _234  and  _237
REMARK   92  A    between atoms: _237  and  _238
REMARK   93  A    between atoms: _241  and  _243
REMARK   94  A    between atoms: _243  and  _244
REMARK   95  A    between atoms: _243  and  _246
REMARK   96  A    between atoms: _246  and  _247
REMARK   97  A    between atoms: _250  and  _252
REMARK   98  A    between atoms: _252  and  _253
REMARK   99  A    between atoms: _252  and  _255
REMARK  100  A    between atoms: _255  and  _256
REMARK  101  A    between atoms: _256  and  _257
REMARK  102  A    between atoms: _257  and  _258
REMARK  103  A    between atoms: _258  and  _259
REMARK  104  A    between atoms: _263  and  _265
REMARK  105  A    between atoms: _265  and  _266
REMARK  106  A    between atoms: _265  and  _268
REMARK  107  A    between atoms: _268  and  _269
REMARK  108  A    between atoms: _269  and  _270
REMARK  109  A    between atoms: _270  and  _271
REMARK  110  A    between atoms: _271  and  _272
REMARK  111  A    between atoms: _276  and  _278
REMARK  112  A    between atoms: _278  and  _279
REMARK  113  A    between atoms: _278  and  _281
REMARK  114  A    between atoms: _281  and  _282
REMARK  115  A    between atoms: _286  and  _287
REMARK  116  A    between atoms: _292  and  _294
REMARK  117  A    between atoms: _294  and  _295
REMARK  118  A    between atoms: _297  and  _299
REMARK  119  A    between atoms: _299  and  _300
REMARK  120  A    between atoms: _299  and  _302
REMARK  121  A    between atoms: _302  and  _303
REMARK  122  A    between atoms: _309  and  _310
REMARK  123  A    between atoms: _315  and  _317
REMARK  124  A    between atoms: _317  and  _318
REMARK  125  A    between atoms: _317  and  _320
REMARK  126  A    between atoms: _320  and  _321
REMARK  127  A    between atoms: _324  and  _326
REMARK  128  A    between atoms: _326  and  _327
REMARK  129  A    between atoms: _326  and  _329
REMARK  130  A    between atoms: _329  and  _330
REMARK  131  A    between atoms: _330  and  _331
REMARK  132  A    between atoms: _331  and  _332
REMARK  133  A    between atoms: _341  and  _343
REMARK  134  A    between atoms: _343  and  _344
REMARK  135  A    between atoms: _343  and  _346
REMARK  136  A    between atoms: _346  and  _347
REMARK  137  A    between atoms: _349  and  _351
REMARK  138  A    between atoms: _351  and  _352
REMARK  139  A    between atoms: _351  and  _354
REMARK  140  A    between atoms: _354  and  _355
REMARK  141  A    between atoms: _360  and  _361
REMARK  142  A    between atoms: _363  and  _365
REMARK  143  A    between atoms: _365  and  _366
REMARK  144  A    between atoms: _365  and  _368
REMARK  145  A    between atoms: _368  and  _369
REMARK  146  A    between atoms: _374  and  _376
REMARK  147  A    between atoms: _376  and  _377
REMARK  148  A    between atoms: _376  and  _379
REMARK  149  A    between atoms: _379  and  _380
REMARK  150  A    between atoms: _380  and  _381
REMARK  151  A    between atoms: _386  and  _388
REMARK  152  A    between atoms: _388  and  _389
REMARK  153  A    between atoms: _388  and  _391
REMARK  154  A    between atoms: _391  and  _392
REMARK  155  A    between atoms: _395  and  _397
REMARK  156  A    between atoms: _397  and  _398
REMARK  157  A    between atoms: _401  and  _403
REMARK  158  A    between atoms: _403  and  _404
REMARK  159  A    between atoms: _407  and  _409
REMARK  160  A    between atoms: _409  and  _410
REMARK  161  A    between atoms: _409  and  _412
REMARK  162  A    between atoms: _412  and  _413
REMARK  163  A    between atoms: _413  and  _414
REMARK  164  A    between atoms: _416  and  _418
REMARK  165  A    between atoms: _418  and  _419
REMARK  166  A    between atoms: _418  and  _421
REMARK  167  A    between atoms: _421  and  _422
REMARK  168  A    between atoms: _422  and  _423
REMARK  169  A    between atoms: _423  and  _424
REMARK  170  A    between atoms: _433  and  _435
REMARK  171  A    between atoms: _435  and  _436
REMARK  172  A    between atoms: _435  and  _438
REMARK  173  A    between atoms: _438  and  _439
REMARK  174  A    between atoms: _439  and  _440
REMARK  175  A    between atoms: _445  and  _447
REMARK  176  A    between atoms: _447  and  _448
REMARK  177  A    between atoms: _450  and  _452
REMARK  178  A    between atoms: _452  and  _453
REMARK  179  A    between atoms: _452  and  _455
REMARK  180  A    between atoms: _455  and  _456
REMARK  181  A    between atoms: _459  and  _461
REMARK  182  A    between atoms: _461  and  _462
REMARK  183  A    between atoms: _461  and  _464
REMARK  184  A    between atoms: _464  and  _465
REMARK  185  A    between atoms: _465  and  _466
REMARK  186  A    between atoms: _469  and  _471
REMARK  187  A    between atoms: _471  and  _472
REMARK  188  A    between atoms: _471  and  _474
REMARK  189  A    between atoms: _474  and  _475
REMARK  190  A    between atoms: _475  and  _476
REMARK  191  A    between atoms: _479  and  _481
REMARK  192  A    between atoms: _481  and  _482
REMARK  193  A    between atoms: _481  and  _484
REMARK  194  A    between atoms: _484  and  _485
REMARK  195  A    between atoms: _488  and  _490
REMARK  196  A    between atoms: _490  and  _491
REMARK  197  A    between atoms: _490  and  _493
REMARK  198  A    between atoms: _493  and  _494
REMARK  199  A    between atoms: _494  and  _495
REMARK  200  A    between atoms: _495  and  _496
REMARK  201  A    between atoms: _505  and  _507
REMARK  202  A    between atoms: _507  and  _508
REMARK  203  A    between atoms: _507  and  _510
REMARK  204  A    between atoms: _510  and  _511
REMARK  205  A    between atoms: _514  and  _516
REMARK  206  A    between atoms: _516  and  _517
REMARK  207  A    between atoms: _520  and  _522
REMARK  208  A    between atoms: _522  and  _523
REMARK  209  A    between atoms: _522  and  _525
REMARK  210  A    between atoms: _528  and  _530
REMARK  211  A    between atoms: _530  and  _531
REMARK  212  A    between atoms: _530  and  _533
REMARK  213  A    between atoms: _533  and  _534
REMARK  214  A    between atoms: _537  and  _539
REMARK  215  A    between atoms: _539  and  _540
REMARK  216  A    between atoms: _539  and  _542
REMARK  217  A    between atoms: _542  and  _543
REMARK  218  A    between atoms: _548  and  _549
REMARK                            x       y       z     vdW  Elec       q    Type
REMARK                         _______ _______ _______ _____ _____    ______ ____
ROOT
ATOM      1  O   HOH     1     -19.237   5.235  -9.203  0.00  0.00    +0.000 OA
ENDROOT
TORSDOF 0
REMARK  Name = ../refined-set-2016/2hw2/2hw2_pocket.pdb
REMARK  218 active torsions:
REMARK  status: ('A' for Active; 'I' for Inactive)
REMARK    1  A    between atoms: _2  and  _3
REMARK    2  A    between atoms: _8  and  _10
REMARK    3  A    between atoms: _10  and  _11
REMARK    4  A    between atoms: _10  and  _13
REMARK    5  A    between atoms: _13  and  _14
REMARK    6  A    between atoms: _20  and  _22
REMARK    7  A    between atoms: _22  and  _23
REMARK    8  A    between atoms: _25  and  _27
REMARK    9  A    between atoms: _27  and  _28
REMARK   10  A    between atoms: _27  and  _30
REMARK   11  A    between atoms: _30  and  _31
REMARK   12  A    between atoms: _33  and  _35
REMARK   13  A    between atoms: _35  and  _36
REMARK   14  A    between atoms: _35  and  _38
REMARK   15  A    between atoms: _38  and  _39
REMARK   16  A    between atoms: _44  and  _46
REMARK   17  A    between atoms: _46  and  _47
REMARK   18  A    between atoms: _46  and  _49
REMARK   19  A    between atoms: _49  and  _50
REMARK   20  A    between atoms: _56  and  _58
REMARK   21  A    between atoms: _58  and  _59
REMARK   22  A    between atoms: _58  and  _61
REMARK   23  A    between atoms: _61  and  _62
REMARK   24  A    between atoms: _62  and  _63
REMARK   25  A    between atoms: _66  and  _68
REMARK   26  A    between atoms: _68  and  _69
REMARK   27  A    between atoms: _68  and  _71
REMARK   28  A    between atoms: _71  and  _72
REMARK   29  A    between atoms: _72  and  _73
REMARK   30  A    between atoms: _75  and  _77
REMARK   31  A    between atoms: _77  and  _78
REMARK   32  A    between atoms: _77  and  _80
REMARK   33  A    between atoms: _80  and  _81
REMARK   34  A    between atoms: _86  and  _87
REMARK   35  A    between atoms: _89  and  _91
REMARK   36  A    between atoms: _91  and  _92
REMARK   37  A    between atoms: _91  and  _94
REMARK   38  A    between atoms: _94  and  _95
REMARK   39  A    between atoms: _98  and  _100
REMARK   40  A    between atoms: _100  and  _101
REMARK   41  A    between atoms: _100  and  _103
REMARK   42  A    between atoms: _103  and  _104
REMARK   43  A    between atoms: _107  and  _109
REMARK   44  A    between atoms: _109  and  _110
REMARK   45  A    between atoms: _109  and  _112
REMARK   46  A    between atoms: _112  and  _113
REMARK   47  A    between atoms: _116  and  _118
REMARK   48  A    between atoms: _118  and  _119
REMARK   49  A    between atoms: _118  and  _121
REMARK   50  A    between atoms: _121  and  _122
REMARK   51  A    between atoms: _125  and  _127
REMARK   52  A    between atoms: _127  and  _128
REMARK   53  A    between atoms: _131  and  _133
REMARK   54  A    between atoms: _133  and  _134
REMARK   55  A    between atoms: _137  and  _139
REMARK   56  A    between atoms: _139  and  _140
REMARK   57  A    between atoms: _139  and  _142
REMARK   58  A    between atoms: _145  and  _147
REMARK   59  A    between atoms: _147  and  _148
REMARK   60  A    between atoms: _147  and  _150
REMARK   61  A    between atoms: _150  and  _151
REMARK   62  A    between atoms: _161  and  _163
REMARK   63  A    between atoms: _163  and  _164
REMARK   64  A    between atoms: _166  and  _168
REMARK   65  A    between atoms: _168  and  _169
REMARK   66  A    between atoms: _172  and  _174
REMARK   67  A    between atoms: _174  and  _175
REMARK   68  A    between atoms: _174  and  _177
REMARK   69  A    between atoms: _177  and  _178
REMARK   70  A    between atoms: _178  and  _179
REMARK   71  A    between atoms: _182  and  _184
REMARK   72  A    between atoms: _184  and  _185
REMARK   73  A    between atoms: _184  and  _187
REMARK   74  A    between atoms: _187  and  _188
REMARK   75  A    between atoms: _191  and  _193
REMARK   76  A    between atoms: _193  and  _194
REMARK   77  A    between atoms: _197  and  _199
REMARK   78  A    between atoms: _199  and  _200
REMARK   79  A    between atoms: _199  and  _202
REMARK   80  A    between atoms: _202  and  _203
REMARK   81  A    between atoms: _207  and  _208
REMARK   82  A    between atoms: _213  and  _215
REMARK   83  A    between atoms: _215  and  _216
REMARK   84  A    between atoms: _215  and  _218
REMARK   85  A    between atoms: _218  and  _219
REMARK   86  A    between atoms: _224  and  _226
REMARK   87  A    between atoms: _226  and  _227
REMARK   88  A    between atoms: _226  and  _229
REMARK   89  A    between atoms: _232  and  _234
REMARK   90  A    between atoms: _234  and  _235
REMARK   91  A    between atoms: _234  and  _237
REMARK   92  A    between atoms: _237  and  _238
REMARK   93  A    between atoms: _241  and  _243
REMARK   94  A    between atoms: _243  and  _244
REMARK   95  A    between atoms: _243  and  _246
REMARK   96  A    between atoms: _246  and  _247
REMARK   97  A    between atoms: _250  and  _252
REMARK   98  A    between atoms: _252  and  _253
REMARK   99  A    between atoms: _252  and  _255
REMARK  100  A    between atoms: _255  and  _256
REMARK  101  A    between atoms: _256  and  _257
REMARK  102  A    between atoms: _257  and  _258
REMARK  103  A    between atoms: _258  and  _259
REMARK  104  A    between atoms: _263  and  _265
REMARK  105  A    between atoms: _265  and  _266
REMARK  106  A    between atoms: _265  and  _268
REMARK  107  A    between atoms: _268  and  _269
REMARK  108  A    between atoms: _269  and  _270
REMARK  109  A    between atoms: _270  and  _271
REMARK  110  A    between atoms: _271  and  _272
REMARK  111  A    between atoms: _276  and  _278
REMARK  112  A    between atoms: _278  and  _279
REMARK  113  A    between atoms: _278  and  _281
REMARK  114  A    between atoms: _281  and  _282
REMARK  115  A    between atoms: _286  and  _287
REMARK  116  A    between atoms: _292  and  _294
REMARK  117  A    between atoms: _294  and  _295
REMARK  118  A    between atoms: _297  and  _299
REMARK  119  A    between atoms: _299  and  _300
REMARK  120  A    between atoms: _299  and  _302
REMARK  121  A    between atoms: _302  and  _303
REMARK  122  A    between atoms: _309  and  _310
REMARK  123  A    between atoms: _315  and  _317
REMARK  124  A    between atoms: _317  and  _318
REMARK  125  A    between atoms: _317  and  _320
REMARK  126  A    between atoms: _320  and  _321
REMARK  127  A    between atoms: _324  and  _326
REMARK  128  A    between atoms: _326  and  _327
REMARK  129  A    between atoms: _326  and  _329
REMARK  130  A    between atoms: _329  and  _330
REMARK  131  A    between atoms: _330  and  _331
REMARK  132  A    between atoms: _331  and  _332
REMARK  133  A    between atoms: _341  and  _343
REMARK  134  A    between atoms: _343  and  _344
REMARK  135  A    between atoms: _343  and  _346
REMARK  136  A    between atoms: _346  and  _347
REMARK  137  A    between atoms: _349  and  _351
REMARK  138  A    between atoms: _351  and  _352
REMARK  139  A    between atoms: _351  and  _354
REMARK  140  A    between atoms: _354  and  _355
REMARK  141  A    between atoms: _360  and  _361
REMARK  142  A    between atoms: _363  and  _365
REMARK  143  A    between atoms: _365  and  _366
REMARK  144  A    between atoms: _365  and  _368
REMARK  145  A    between atoms: _368  and  _369
REMARK  146  A    between atoms: _374  and  _376
REMARK  147  A    between atoms: _376  and  _377
REMARK  148  A    between atoms: _376  and  _379
REMARK  149  A    between atoms: _379  and  _380
REMARK  150  A    between atoms: _380  and  _381
REMARK  151  A    between atoms: _386  and  _388
REMARK  152  A    between atoms: _388  and  _389
REMARK  153  A    between atoms: _388  and  _391
REMARK  154  A    between atoms: _391  and  _392
REMARK  155  A    between atoms: _395  and  _397
REMARK  156  A    between atoms: _397  and  _398
REMARK  157  A    between atoms: _401  and  _403
REMARK  158  A    between atoms: _403  and  _404
REMARK  159  A    between atoms: _407  and  _409
REMARK  160  A    between atoms: _409  and  _410
REMARK  161  A    between atoms: _409  and  _412
REMARK  162  A    between atoms: _412  and  _413
REMARK  163  A    between atoms: _413  and  _414
REMARK  164  A    between atoms: _416  and  _418
REMARK  165  A    between atoms: _418  and  _419
REMARK  166  A    between atoms: _418  and  _421
REMARK  167  A    between atoms: _421  and  _422
REMARK  168  A    between atoms: _422  and  _423
REMARK  169  A    between atoms: _423  and  _424
REMARK  170  A    between atoms: _433  and  _435
REMARK  171  A    between atoms: _435  and  _436
REMARK  172  A    between atoms: _435  and  _438
REMARK  173  A    between atoms: _438  and  _439
REMARK  174  A    between atoms: _439  and  _440
REMARK  175  A    between atoms: _445  and  _447
REMARK  176  A    between atoms: _447  and  _448
REMARK  177  A    between atoms: _450  and  _452
REMARK  178  A    between atoms: _452  and  _453
REMARK  179  A    between atoms: _452  and  _455
REMARK  180  A    between atoms: _455  and  _456
REMARK  181  A    between atoms: _459  and  _461
REMARK  182  A    between atoms: _461  and  _462
REMARK  183  A    between atoms: _461  and  _464
REMARK  184  A    between atoms: _464  and  _465
REMARK  185  A    between atoms: _465  and  _466
REMARK  186  A    between atoms: _469  and  _471
REMARK  187  A    between atoms: _471  and  _472
REMARK  188  A    between atoms: _471  and  _474
REMARK  189  A    between atoms: _474  and  _475
REMARK  190  A    between atoms: _475  and  _476
REMARK  191  A    between atoms: _479  and  _481
REMARK  192  A    between atoms: _481  and  _482
REMARK  193  A    between atoms: _481  and  _484
REMARK  194  A    between atoms: _484  and  _485
REMARK  195  A    between atoms: _488  and  _490
REMARK  196  A    between atoms: _490  and  _491
REMARK  197  A    between atoms: _490  and  _493
REMARK  198  A    between atoms: _493  and  _494
REMARK  199  A    between atoms: _494  and  _495
REMARK  200  A    between atoms: _495  and  _496
REMARK  201  A    between atoms: _505  and  _507
REMARK  202  A    between atoms: _507  and  _508
REMARK  203  A    between atoms: _507  and  _510
REMARK  204  A    between atoms: _510  and  _511
REMARK  205  A    between atoms: _514  and  _516
REMARK  206  A    between atoms: _516  and  _517
REMARK  207  A    between atoms: _520  and  _522
REMARK  208  A    between atoms: _522  and  _523
REMARK  209  A    between atoms: _522  and  _525
REMARK  210  A    between atoms: _528  and  _530
REMARK  211  A    between atoms: _530  and  _531
REMARK  212  A    between atoms: _530  and  _533
REMARK  213  A    between atoms: _533  and  _534
REMARK  214  A    between atoms: _537  and  _539
REMARK  215  A    between atoms: _539  and  _540
REMARK  216  A    between atoms: _539  and  _542
REMARK  217  A    between atoms: _542  and  _543
REMARK  218  A    between atoms: _548  and  _549
REMARK                            x       y       z     vdW  Elec       q    Type
REMARK                         _______ _______ _______ _____ _____    ______ ____
ROOT
ATOM      1  O   HOH     1      -9.465  20.917 -15.899  0.00  0.00    +0.000 OA
ENDROOT
TORSDOF 0
REMARK  Name = ../refined-set-2016/2hw2/2hw2_pocket.pdb
REMARK  218 active torsions:
REMARK  status: ('A' for Active; 'I' for Inactive)
REMARK    1  A    between atoms: _2  and  _3
REMARK    2  A    between atoms: _8  and  _10
REMARK    3  A    between atoms: _10  and  _11
REMARK    4  A    between atoms: _10  and  _13
REMARK    5  A    between atoms: _13  and  _14
REMARK    6  A    between atoms: _20  and  _22
REMARK    7  A    between atoms: _22  and  _23
REMARK    8  A    between atoms: _25  and  _27
REMARK    9  A    between atoms: _27  and  _28
REMARK   10  A    between atoms: _27  and  _30
REMARK   11  A    between atoms: _30  and  _31
REMARK   12  A    between atoms: _33  and  _35
REMARK   13  A    between atoms: _35  and  _36
REMARK   14  A    between atoms: _35  and  _38
REMARK   15  A    between atoms: _38  and  _39
REMARK   16  A    between atoms: _44  and  _46
REMARK   17  A    between atoms: _46  and  _47
REMARK   18  A    between atoms: _46  and  _49
REMARK   19  A    between atoms: _49  and  _50
REMARK   20  A    between atoms: _56  and  _58
REMARK   21  A    between atoms: _58  and  _59
REMARK   22  A    between atoms: _58  and  _61
REMARK   23  A    between atoms: _61  and  _62
REMARK   24  A    between atoms: _62  and  _63
REMARK   25  A    between atoms: _66  and  _68
REMARK   26  A    between atoms: _68  and  _69
REMARK   27  A    between atoms: _68  and  _71
REMARK   28  A    between atoms: _71  and  _72
REMARK   29  A    between atoms: _72  and  _73
REMARK   30  A    between atoms: _75  and  _77
REMARK   31  A    between atoms: _77  and  _78
REMARK   32  A    between atoms: _77  and  _80
REMARK   33  A    between atoms: _80  and  _81
REMARK   34  A    between atoms: _86  and  _87
REMARK   35  A    between atoms: _89  and  _91
REMARK   36  A    between atoms: _91  and  _92
REMARK   37  A    between atoms: _91  and  _94
REMARK   38  A    between atoms: _94  and  _95
REMARK   39  A    between atoms: _98  and  _100
REMARK   40  A    between atoms: _100  and  _101
REMARK   41  A    between atoms: _100  and  _103
REMARK   42  A    between atoms: _103  and  _104
REMARK   43  A    between atoms: _107  and  _109
REMARK   44  A    between atoms: _109  and  _110
REMARK   45  A    between atoms: _109  and  _112
REMARK   46  A    between atoms: _112  and  _113
REMARK   47  A    between atoms: _116  and  _118
REMARK   48  A    between atoms: _118  and  _119
REMARK   49  A    between atoms: _118  and  _121
REMARK   50  A    between atoms: _121  and  _122
REMARK   51  A    between atoms: _125  and  _127
REMARK   52  A    between atoms: _127  and  _128
REMARK   53  A    between atoms: _131  and  _133
REMARK   54  A    between atoms: _133  and  _134
REMARK   55  A    between atoms: _137  and  _139
REMARK   56  A    between atoms: _139  and  _140
REMARK   57  A    between atoms: _139  and  _142
REMARK   58  A    between atoms: _145  and  _147
REMARK   59  A    between atoms: _147  and  _148
REMARK   60  A    between atoms: _147  and  _150
REMARK   61  A    between atoms: _150  and  _151
REMARK   62  A    between atoms: _161  and  _163
REMARK   63  A    between atoms: _163  and  _164
REMARK   64  A    between atoms: _166  and  _168
REMARK   65  A    between atoms: _168  and  _169
REMARK   66  A    between atoms: _172  and  _174
REMARK   67  A    between atoms: _174  and  _175
REMARK   68  A    between atoms: _174  and  _177
REMARK   69  A    between atoms: _177  and  _178
REMARK   70  A    between atoms: _178  and  _179
REMARK   71  A    between atoms: _182  and  _184
REMARK   72  A    between atoms: _184  and  _185
REMARK   73  A    between atoms: _184  and  _187
REMARK   74  A    between atoms: _187  and  _188
REMARK   75  A    between atoms: _191  and  _193
REMARK   76  A    between atoms: _193  and  _194
REMARK   77  A    between atoms: _197  and  _199
REMARK   78  A    between atoms: _199  and  _200
REMARK   79  A    between atoms: _199  and  _202
REMARK   80  A    between atoms: _202  and  _203
REMARK   81  A    between atoms: _207  and  _208
REMARK   82  A    between atoms: _213  and  _215
REMARK   83  A    between atoms: _215  and  _216
REMARK   84  A    between atoms: _215  and  _218
REMARK   85  A    between atoms: _218  and  _219
REMARK   86  A    between atoms: _224  and  _226
REMARK   87  A    between atoms: _226  and  _227
REMARK   88  A    between atoms: _226  and  _229
REMARK   89  A    between atoms: _232  and  _234
REMARK   90  A    between atoms: _234  and  _235
REMARK   91  A    between atoms: _234  and  _237
REMARK   92  A    between atoms: _237  and  _238
REMARK   93  A    between atoms: _241  and  _243
REMARK   94  A    between atoms: _243  and  _244
REMARK   95  A    between atoms: _243  and  _246
REMARK   96  A    between atoms: _246  and  _247
REMARK   97  A    between atoms: _250  and  _252
REMARK   98  A    between atoms: _252  and  _253
REMARK   99  A    between atoms: _252  and  _255
REMARK  100  A    between atoms: _255  and  _256
REMARK  101  A    between atoms: _256  and  _257
REMARK  102  A    between atoms: _257  and  _258
REMARK  103  A    between atoms: _258  and  _259
REMARK  104  A    between atoms: _263  and  _265
REMARK  105  A    between atoms: _265  and  _266
REMARK  106  A    between atoms: _265  and  _268
REMARK  107  A    between atoms: _268  and  _269
REMARK  108  A    between atoms: _269  and  _270
REMARK  109  A    between atoms: _270  and  _271
REMARK  110  A    between atoms: _271  and  _272
REMARK  111  A    between atoms: _276  and  _278
REMARK  112  A    between atoms: _278  and  _279
REMARK  113  A    between atoms: _278  and  _281
REMARK  114  A    between atoms: _281  and  _282
REMARK  115  A    between atoms: _286  and  _287
REMARK  116  A    between atoms: _292  and  _294
REMARK  117  A    between atoms: _294  and  _295
REMARK  118  A    between atoms: _297  and  _299
REMARK  119  A    between atoms: _299  and  _300
REMARK  120  A    between atoms: _299  and  _302
REMARK  121  A    between atoms: _302  and  _303
REMARK  122  A    between atoms: _309  and  _310
REMARK  123  A    between atoms: _315  and  _317
REMARK  124  A    between atoms: _317  and  _318
REMARK  125  A    between atoms: _317  and  _320
REMARK  126  A    between atoms: _320  and  _321
REMARK  127  A    between atoms: _324  and  _326
REMARK  128  A    between atoms: _326  and  _327
REMARK  129  A    between atoms: _326  and  _329
REMARK  130  A    between atoms: _329  and  _330
REMARK  131  A    between atoms: _330  and  _331
REMARK  132  A    between atoms: _331  and  _332
REMARK  133  A    between atoms: _341  and  _343
REMARK  134  A    between atoms: _343  and  _344
REMARK  135  A    between atoms: _343  and  _346
REMARK  136  A    between atoms: _346  and  _347
REMARK  137  A    between atoms: _349  and  _351
REMARK  138  A    between atoms: _351  and  _352
REMARK  139  A    between atoms: _351  and  _354
REMARK  140  A    between atoms: _354  and  _355
REMARK  141  A    between atoms: _360  and  _361
REMARK  142  A    between atoms: _363  and  _365
REMARK  143  A    between atoms: _365  and  _366
REMARK  144  A    between atoms: _365  and  _368
REMARK  145  A    between atoms: _368  and  _369
REMARK  146  A    between atoms: _374  and  _376
REMARK  147  A    between atoms: _376  and  _377
REMARK  148  A    between atoms: _376  and  _379
REMARK  149  A    between atoms: _379  and  _380
REMARK  150  A    between atoms: _380  and  _381
REMARK  151  A    between atoms: _386  and  _388
REMARK  152  A    between atoms: _388  and  _389
REMARK  153  A    between atoms: _388  and  _391
REMARK  154  A    between atoms: _391  and  _392
REMARK  155  A    between atoms: _395  and  _397
REMARK  156  A    between atoms: _397  and  _398
REMARK  157  A    between atoms: _401  and  _403
REMARK  158  A    between atoms: _403  and  _404
REMARK  159  A    between atoms: _407  and  _409
REMARK  160  A    between atoms: _409  and  _410
REMARK  161  A    between atoms: _409  and  _412
REMARK  162  A    between atoms: _412  and  _413
REMARK  163  A    between atoms: _413  and  _414
REMARK  164  A    between atoms: _416  and  _418
REMARK  165  A    between atoms: _418  and  _419
REMARK  166  A    between atoms: _418  and  _421
REMARK  167  A    between atoms: _421  and  _422
REMARK  168  A    between atoms: _422  and  _423
REMARK  169  A    between atoms: _423  and  _424
REMARK  170  A    between atoms: _433  and  _435
REMARK  171  A    between atoms: _435  and  _436
REMARK  172  A    between atoms: _435  and  _438
REMARK  173  A    between atoms: _438  and  _439
REMARK  174  A    between atoms: _439  and  _440
REMARK  175  A    between atoms: _445  and  _447
REMARK  176  A    between atoms: _447  and  _448
REMARK  177  A    between atoms: _450  and  _452
REMARK  178  A    between atoms: _452  and  _453
REMARK  179  A    between atoms: _452  and  _455
REMARK  180  A    between atoms: _455  and  _456
REMARK  181  A    between atoms: _459  and  _461
REMARK  182  A    between atoms: _461  and  _462
REMARK  183  A    between atoms: _461  and  _464
REMARK  184  A    between atoms: _464  and  _465
REMARK  185  A    between atoms: _465  and  _466
REMARK  186  A    between atoms: _469  and  _471
REMARK  187  A    between atoms: _471  and  _472
REMARK  188  A    between atoms: _471  and  _474
REMARK  189  A    between atoms: _474  and  _475
REMARK  190  A    between atoms: _475  and  _476
REMARK  191  A    between atoms: _479  and  _481
REMARK  192  A    between atoms: _481  and  _482
REMARK  193  A    between atoms: _481  and  _484
REMARK  194  A    between atoms: _484  and  _485
REMARK  195  A    between atoms: _488  and  _490
REMARK  196  A    between atoms: _490  and  _491
REMARK  197  A    between atoms: _490  and  _493
REMARK  198  A    between atoms: _493  and  _494
REMARK  199  A    between atoms: _494  and  _495
REMARK  200  A    between atoms: _495  and  _496
REMARK  201  A    between atoms: _505  and  _507
REMARK  202  A    between atoms: _507  and  _508
REMARK  203  A    between atoms: _507  and  _510
REMARK  204  A    between atoms: _510  and  _511
REMARK  205  A    between atoms: _514  and  _516
REMARK  206  A    between atoms: _516  and  _517
REMARK  207  A    between atoms: _520  and  _522
REMARK  208  A    between atoms: _522  and  _523
REMARK  209  A    between atoms: _522  and  _525
REMARK  210  A    between atoms: _528  and  _530
REMARK  211  A    between atoms: _530  and  _531
REMARK  212  A    between atoms: _530  and  _533
REMARK  213  A    between atoms: _533  and  _534
REMARK  214  A    between atoms: _537  and  _539
REMARK  215  A    between atoms: _539  and  _540
REMARK  216  A    between atoms: _539  and  _542
REMARK  217  A    between atoms: _542  and  _543
REMARK  218  A    between atoms: _548  and  _549
REMARK                            x       y       z     vdW  Elec       q    Type
REMARK                         _______ _______ _______ _____ _____    ______ ____
ROOT
ATOM      1  O   HOH     1     -16.782   5.643 -24.880  0.00  0.00    +0.000 OA
ENDROOT
TORSDOF 0
REMARK  Name = ../refined-set-2016/2hw2/2hw2_pocket.pdb
REMARK  218 active torsions:
REMARK  status: ('A' for Active; 'I' for Inactive)
REMARK    1  A    between atoms: _2  and  _3
REMARK    2  A    between atoms: _8  and  _10
REMARK    3  A    between atoms: _10  and  _11
REMARK    4  A    between atoms: _10  and  _13
REMARK    5  A    between atoms: _13  and  _14
REMARK    6  A    between atoms: _20  and  _22
REMARK    7  A    between atoms: _22  and  _23
REMARK    8  A    between atoms: _25  and  _27
REMARK    9  A    between atoms: _27  and  _28
REMARK   10  A    between atoms: _27  and  _30
REMARK   11  A    between atoms: _30  and  _31
REMARK   12  A    between atoms: _33  and  _35
REMARK   13  A    between atoms: _35  and  _36
REMARK   14  A    between atoms: _35  and  _38
REMARK   15  A    between atoms: _38  and  _39
REMARK   16  A    between atoms: _44  and  _46
REMARK   17  A    between atoms: _46  and  _47
REMARK   18  A    between atoms: _46  and  _49
REMARK   19  A    between atoms: _49  and  _50
REMARK   20  A    between atoms: _56  and  _58
REMARK   21  A    between atoms: _58  and  _59
REMARK   22  A    between atoms: _58  and  _61
REMARK   23  A    between atoms: _61  and  _62
REMARK   24  A    between atoms: _62  and  _63
REMARK   25  A    between atoms: _66  and  _68
REMARK   26  A    between atoms: _68  and  _69
REMARK   27  A    between atoms: _68  and  _71
REMARK   28  A    between atoms: _71  and  _72
REMARK   29  A    between atoms: _72  and  _73
REMARK   30  A    between atoms: _75  and  _77
REMARK   31  A    between atoms: _77  and  _78
REMARK   32  A    between atoms: _77  and  _80
REMARK   33  A    between atoms: _80  and  _81
REMARK   34  A    between atoms: _86  and  _87
REMARK   35  A    between atoms: _89  and  _91
REMARK   36  A    between atoms: _91  and  _92
REMARK   37  A    between atoms: _91  and  _94
REMARK   38  A    between atoms: _94  and  _95
REMARK   39  A    between atoms: _98  and  _100
REMARK   40  A    between atoms: _100  and  _101
REMARK   41  A    between atoms: _100  and  _103
REMARK   42  A    between atoms: _103  and  _104
REMARK   43  A    between atoms: _107  and  _109
REMARK   44  A    between atoms: _109  and  _110
REMARK   45  A    between atoms: _109  and  _112
REMARK   46  A    between atoms: _112  and  _113
REMARK   47  A    between atoms: _116  and  _118
REMARK   48  A    between atoms: _118  and  _119
REMARK   49  A    between atoms: _118  and  _121
REMARK   50  A    between atoms: _121  and  _122
REMARK   51  A    between atoms: _125  and  _127
REMARK   52  A    between atoms: _127  and  _128
REMARK   53  A    between atoms: _131  and  _133
REMARK   54  A    between atoms: _133  and  _134
REMARK   55  A    between atoms: _137  and  _139
REMARK   56  A    between atoms: _139  and  _140
REMARK   57  A    between atoms: _139  and  _142
REMARK   58  A    between atoms: _145  and  _147
REMARK   59  A    between atoms: _147  and  _148
REMARK   60  A    between atoms: _147  and  _150
REMARK   61  A    between atoms: _150  and  _151
REMARK   62  A    between atoms: _161  and  _163
REMARK   63  A    between atoms: _163  and  _164
REMARK   64  A    between atoms: _166  and  _168
REMARK   65  A    between atoms: _168  and  _169
REMARK   66  A    between atoms: _172  and  _174
REMARK   67  A    between atoms: _174  and  _175
REMARK   68  A    between atoms: _174  and  _177
REMARK   69  A    between atoms: _177  and  _178
REMARK   70  A    between atoms: _178  and  _179
REMARK   71  A    between atoms: _182  and  _184
REMARK   72  A    between atoms: _184  and  _185
REMARK   73  A    between atoms: _184  and  _187
REMARK   74  A    between atoms: _187  and  _188
REMARK   75  A    between atoms: _191  and  _193
REMARK   76  A    between atoms: _193  and  _194
REMARK   77  A    between atoms: _197  and  _199
REMARK   78  A    between atoms: _199  and  _200
REMARK   79  A    between atoms: _199  and  _202
REMARK   80  A    between atoms: _202  and  _203
REMARK   81  A    between atoms: _207  and  _208
REMARK   82  A    between atoms: _213  and  _215
REMARK   83  A    between atoms: _215  and  _216
REMARK   84  A    between atoms: _215  and  _218
REMARK   85  A    between atoms: _218  and  _219
REMARK   86  A    between atoms: _224  and  _226
REMARK   87  A    between atoms: _226  and  _227
REMARK   88  A    between atoms: _226  and  _229
REMARK   89  A    between atoms: _232  and  _234
REMARK   90  A    between atoms: _234  and  _235
REMARK   91  A    between atoms: _234  and  _237
REMARK   92  A    between atoms: _237  and  _238
REMARK   93  A    between atoms: _241  and  _243
REMARK   94  A    between atoms: _243  and  _244
REMARK   95  A    between atoms: _243  and  _246
REMARK   96  A    between atoms: _246  and  _247
REMARK   97  A    between atoms: _250  and  _252
REMARK   98  A    between atoms: _252  and  _253
REMARK   99  A    between atoms: _252  and  _255
REMARK  100  A    between atoms: _255  and  _256
REMARK  101  A    between atoms: _256  and  _257
REMARK  102  A    between atoms: _257  and  _258
REMARK  103  A    between atoms: _258  and  _259
REMARK  104  A    between atoms: _263  and  _265
REMARK  105  A    between atoms: _265  and  _266
REMARK  106  A    between atoms: _265  and  _268
REMARK  107  A    between atoms: _268  and  _269
REMARK  108  A    between atoms: _269  and  _270
REMARK  109  A    between atoms: _270  and  _271
REMARK  110  A    between atoms: _271  and  _272
REMARK  111  A    between atoms: _276  and  _278
REMARK  112  A    between atoms: _278  and  _279
REMARK  113  A    between atoms: _278  and  _281
REMARK  114  A    between atoms: _281  and  _282
REMARK  115  A    between atoms: _286  and  _287
REMARK  116  A    between atoms: _292  and  _294
REMARK  117  A    between atoms: _294  and  _295
REMARK  118  A    between atoms: _297  and  _299
REMARK  119  A    between atoms: _299  and  _300
REMARK  120  A    between atoms: _299  and  _302
REMARK  121  A    between atoms: _302  and  _303
REMARK  122  A    between atoms: _309  and  _310
REMARK  123  A    between atoms: _315  and  _317
REMARK  124  A    between atoms: _317  and  _318
REMARK  125  A    between atoms: _317  and  _320
REMARK  126  A    between atoms: _320  and  _321
REMARK  127  A    between atoms: _324  and  _326
REMARK  128  A    between atoms: _326  and  _327
REMARK  129  A    between atoms: _326  and  _329
REMARK  130  A    between atoms: _329  and  _330
REMARK  131  A    between atoms: _330  and  _331
REMARK  132  A    between atoms: _331  and  _332
REMARK  133  A    between atoms: _341  and  _343
REMARK  134  A    between atoms: _343  and  _344
REMARK  135  A    between atoms: _343  and  _346
REMARK  136  A    between atoms: _346  and  _347
REMARK  137  A    between atoms: _349  and  _351
REMARK  138  A    between atoms: _351  and  _352
REMARK  139  A    between atoms: _351  and  _354
REMARK  140  A    between atoms: _354  and  _355
REMARK  141  A    between atoms: _360  and  _361
REMARK  142  A    between atoms: _363  and  _365
REMARK  143  A    between atoms: _365  and  _366
REMARK  144  A    between atoms: _365  and  _368
REMARK  145  A    between atoms: _368  and  _369
REMARK  146  A    between atoms: _374  and  _376
REMARK  147  A    between atoms: _376  and  _377
REMARK  148  A    between atoms: _376  and  _379
REMARK  149  A    between atoms: _379  and  _380
REMARK  150  A    between atoms: _380  and  _381
REMARK  151  A    between atoms: _386  and  _388
REMARK  152  A    between atoms: _388  and  _389
REMARK  153  A    between atoms: _388  and  _391
REMARK  154  A    between atoms: _391  and  _392
REMARK  155  A    between atoms: _395  and  _397
REMARK  156  A    between atoms: _397  and  _398
REMARK  157  A    between atoms: _401  and  _403
REMARK  158  A    between atoms: _403  and  _404
REMARK  159  A    between atoms: _407  and  _409
REMARK  160  A    between atoms: _409  and  _410
REMARK  161  A    between atoms: _409  and  _412
REMARK  162  A    between atoms: _412  and  _413
REMARK  163  A    between atoms: _413  and  _414
REMARK  164  A    between atoms: _416  and  _418
REMARK  165  A    between atoms: _418  and  _419
REMARK  166  A    between atoms: _418  and  _421
REMARK  167  A    between atoms: _421  and  _422
REMARK  168  A    between atoms: _422  and  _423
REMARK  169  A    between atoms: _423  and  _424
REMARK  170  A    between atoms: _433  and  _435
REMARK  171  A    between atoms: _435  and  _436
REMARK  172  A    between atoms: _435  and  _438
REMARK  173  A    between atoms: _438  and  _439
REMARK  174  A    between atoms: _439  and  _440
REMARK  175  A    between atoms: _445  and  _447
REMARK  176  A    between atoms: _447  and  _448
REMARK  177  A    between atoms: _450  and  _452
REMARK  178  A    between atoms: _452  and  _453
REMARK  179  A    between atoms: _452  and  _455
REMARK  180  A    between atoms: _455  and  _456
REMARK  181  A    between atoms: _459  and  _461
REMARK  182  A    between atoms: _461  and  _462
REMARK  183  A    between atoms: _461  and  _464
REMARK  184  A    between atoms: _464  and  _465
REMARK  185  A    between atoms: _465  and  _466
REMARK  186  A    between atoms: _469  and  _471
REMARK  187  A    between atoms: _471  and  _472
REMARK  188  A    between atoms: _471  and  _474
REMARK  189  A    between atoms: _474  and  _475
REMARK  190  A    between atoms: _475  and  _476
REMARK  191  A    between atoms: _479  and  _481
REMARK  192  A    between atoms: _481  and  _482
REMARK  193  A    between atoms: _481  and  _484
REMARK  194  A    between atoms: _484  and  _485
REMARK  195  A    between atoms: _488  and  _490
REMARK  196  A    between atoms: _490  and  _491
REMARK  197  A    between atoms: _490  and  _493
REMARK  198  A    between atoms: _493  and  _494
REMARK  199  A    between atoms: _494  and  _495
REMARK  200  A    between atoms: _495  and  _496
REMARK  201  A    between atoms: _505  and  _507
REMARK  202  A    between atoms: _507  and  _508
REMARK  203  A    between atoms: _507  and  _510
REMARK  204  A    between atoms: _510  and  _511
REMARK  205  A    between atoms: _514  and  _516
REMARK  206  A    between atoms: _516  and  _517
REMARK  207  A    between atoms: _520  and  _522
REMARK  208  A    between atoms: _522  and  _523
REMARK  209  A    between atoms: _522  and  _525
REMARK  210  A    between atoms: _528  and  _530
REMARK  211  A    between atoms: _530  and  _531
REMARK  212  A    between atoms: _530  and  _533
REMARK  213  A    between atoms: _533  and  _534
REMARK  214  A    between atoms: _537  and  _539
REMARK  215  A    between atoms: _539  and  _540
REMARK  216  A    between atoms: _539  and  _542
REMARK  217  A    between atoms: _542  and  _543
REMARK  218  A    between atoms: _548  and  _549
REMARK                            x       y       z     vdW  Elec       q    Type
REMARK                         _______ _______ _______ _____ _____    ______ ____
ROOT
ATOM      1  O   HOH     1     -11.341   4.023 -29.437  0.00  0.00    +0.000 OA
ENDROOT
TORSDOF 0
REMARK  Name = ../refined-set-2016/2hw2/2hw2_pocket.pdb
REMARK  218 active torsions:
REMARK  status: ('A' for Active; 'I' for Inactive)
REMARK    1  A    between atoms: _2  and  _3
REMARK    2  A    between atoms: _8  and  _10
REMARK    3  A    between atoms: _10  and  _11
REMARK    4  A    between atoms: _10  and  _13
REMARK    5  A    between atoms: _13  and  _14
REMARK    6  A    between atoms: _20  and  _22
REMARK    7  A    between atoms: _22  and  _23
REMARK    8  A    between atoms: _25  and  _27
REMARK    9  A    between atoms: _27  and  _28
REMARK   10  A    between atoms: _27  and  _30
REMARK   11  A    between atoms: _30  and  _31
REMARK   12  A    between atoms: _33  and  _35
REMARK   13  A    between atoms: _35  and  _36
REMARK   14  A    between atoms: _35  and  _38
REMARK   15  A    between atoms: _38  and  _39
REMARK   16  A    between atoms: _44  and  _46
REMARK   17  A    between atoms: _46  and  _47
REMARK   18  A    between atoms: _46  and  _49
REMARK   19  A    between atoms: _49  and  _50
REMARK   20  A    between atoms: _56  and  _58
REMARK   21  A    between atoms: _58  and  _59
REMARK   22  A    between atoms: _58  and  _61
REMARK   23  A    between atoms: _61  and  _62
REMARK   24  A    between atoms: _62  and  _63
REMARK   25  A    between atoms: _66  and  _68
REMARK   26  A    between atoms: _68  and  _69
REMARK   27  A    between atoms: _68  and  _71
REMARK   28  A    between atoms: _71  and  _72
REMARK   29  A    between atoms: _72  and  _73
REMARK   30  A    between atoms: _75  and  _77
REMARK   31  A    between atoms: _77  and  _78
REMARK   32  A    between atoms: _77  and  _80
REMARK   33  A    between atoms: _80  and  _81
REMARK   34  A    between atoms: _86  and  _87
REMARK   35  A    between atoms: _89  and  _91
REMARK   36  A    between atoms: _91  and  _92
REMARK   37  A    between atoms: _91  and  _94
REMARK   38  A    between atoms: _94  and  _95
REMARK   39  A    between atoms: _98  and  _100
REMARK   40  A    between atoms: _100  and  _101
REMARK   41  A    between atoms: _100  and  _103
REMARK   42  A    between atoms: _103  and  _104
REMARK   43  A    between atoms: _107  and  _109
REMARK   44  A    between atoms: _109  and  _110
REMARK   45  A    between atoms: _109  and  _112
REMARK   46  A    between atoms: _112  and  _113
REMARK   47  A    between atoms: _116  and  _118
REMARK   48  A    between atoms: _118  and  _119
REMARK   49  A    between atoms: _118  and  _121
REMARK   50  A    between atoms: _121  and  _122
REMARK   51  A    between atoms: _125  and  _127
REMARK   52  A    between atoms: _127  and  _128
REMARK   53  A    between atoms: _131  and  _133
REMARK   54  A    between atoms: _133  and  _134
REMARK   55  A    between atoms: _137  and  _139
REMARK   56  A    between atoms: _139  and  _140
REMARK   57  A    between atoms: _139  and  _142
REMARK   58  A    between atoms: _145  and  _147
REMARK   59  A    between atoms: _147  and  _148
REMARK   60  A    between atoms: _147  and  _150
REMARK   61  A    between atoms: _150  and  _151
REMARK   62  A    between atoms: _161  and  _163
REMARK   63  A    between atoms: _163  and  _164
REMARK   64  A    between atoms: _166  and  _168
REMARK   65  A    between atoms: _168  and  _169
REMARK   66  A    between atoms: _172  and  _174
REMARK   67  A    between atoms: _174  and  _175
REMARK   68  A    between atoms: _174  and  _177
REMARK   69  A    between atoms: _177  and  _178
REMARK   70  A    between atoms: _178  and  _179
REMARK   71  A    between atoms: _182  and  _184
REMARK   72  A    between atoms: _184  and  _185
REMARK   73  A    between atoms: _184  and  _187
REMARK   74  A    between atoms: _187  and  _188
REMARK   75  A    between atoms: _191  and  _193
REMARK   76  A    between atoms: _193  and  _194
REMARK   77  A    between atoms: _197  and  _199
REMARK   78  A    between atoms: _199  and  _200
REMARK   79  A    between atoms: _199  and  _202
REMARK   80  A    between atoms: _202  and  _203
REMARK   81  A    between atoms: _207  and  _208
REMARK   82  A    between atoms: _213  and  _215
REMARK   83  A    between atoms: _215  and  _216
REMARK   84  A    between atoms: _215  and  _218
REMARK   85  A    between atoms: _218  and  _219
REMARK   86  A    between atoms: _224  and  _226
REMARK   87  A    between atoms: _226  and  _227
REMARK   88  A    between atoms: _226  and  _229
REMARK   89  A    between atoms: _232  and  _234
REMARK   90  A    between atoms: _234  and  _235
REMARK   91  A    between atoms: _234  and  _237
REMARK   92  A    between atoms: _237  and  _238
REMARK   93  A    between atoms: _241  and  _243
REMARK   94  A    between atoms: _243  and  _244
REMARK   95  A    between atoms: _243  and  _246
REMARK   96  A    between atoms: _246  and  _247
REMARK   97  A    between atoms: _250  and  _252
REMARK   98  A    between atoms: _252  and  _253
REMARK   99  A    between atoms: _252  and  _255
REMARK  100  A    between atoms: _255  and  _256
REMARK  101  A    between atoms: _256  and  _257
REMARK  102  A    between atoms: _257  and  _258
REMARK  103  A    between atoms: _258  and  _259
REMARK  104  A    between atoms: _263  and  _265
REMARK  105  A    between atoms: _265  and  _266
REMARK  106  A    between atoms: _265  and  _268
REMARK  107  A    between atoms: _268  and  _269
REMARK  108  A    between atoms: _269  and  _270
REMARK  109  A    between atoms: _270  and  _271
REMARK  110  A    between atoms: _271  and  _272
REMARK  111  A    between atoms: _276  and  _278
REMARK  112  A    between atoms: _278  and  _279
REMARK  113  A    between atoms: _278  and  _281
REMARK  114  A    between atoms: _281  and  _282
REMARK  115  A    between atoms: _286  and  _287
REMARK  116  A    between atoms: _292  and  _294
REMARK  117  A    between atoms: _294  and  _295
REMARK  118  A    between atoms: _297  and  _299
REMARK  119  A    between atoms: _299  and  _300
REMARK  120  A    between atoms: _299  and  _302
REMARK  121  A    between atoms: _302  and  _303
REMARK  122  A    between atoms: _309  and  _310
REMARK  123  A    between atoms: _315  and  _317
REMARK  124  A    between atoms: _317  and  _318
REMARK  125  A    between atoms: _317  and  _320
REMARK  126  A    between atoms: _320  and  _321
REMARK  127  A    between atoms: _324  and  _326
REMARK  128  A    between atoms: _326  and  _327
REMARK  129  A    between atoms: _326  and  _329
REMARK  130  A    between atoms: _329  and  _330
REMARK  131  A    between atoms: _330  and  _331
REMARK  132  A    between atoms: _331  and  _332
REMARK  133  A    between atoms: _341  and  _343
REMARK  134  A    between atoms: _343  and  _344
REMARK  135  A    between atoms: _343  and  _346
REMARK  136  A    between atoms: _346  and  _347
REMARK  137  A    between atoms: _349  and  _351
REMARK  138  A    between atoms: _351  and  _352
REMARK  139  A    between atoms: _351  and  _354
REMARK  140  A    between atoms: _354  and  _355
REMARK  141  A    between atoms: _360  and  _361
REMARK  142  A    between atoms: _363  and  _365
REMARK  143  A    between atoms: _365  and  _366
REMARK  144  A    between atoms: _365  and  _368
REMARK  145  A    between atoms: _368  and  _369
REMARK  146  A    between atoms: _374  and  _376
REMARK  147  A    between atoms: _376  and  _377
REMARK  148  A    between atoms: _376  and  _379
REMARK  149  A    between atoms: _379  and  _380
REMARK  150  A    between atoms: _380  and  _381
REMARK  151  A    between atoms: _386  and  _388
REMARK  152  A    between atoms: _388  and  _389
REMARK  153  A    between atoms: _388  and  _391
REMARK  154  A    between atoms: _391  and  _392
REMARK  155  A    between atoms: _395  and  _397
REMARK  156  A    between atoms: _397  and  _398
REMARK  157  A    between atoms: _401  and  _403
REMARK  158  A    between atoms: _403  and  _404
REMARK  159  A    between atoms: _407  and  _409
REMARK  160  A    between atoms: _409  and  _410
REMARK  161  A    between atoms: _409  and  _412
REMARK  162  A    between atoms: _412  and  _413
REMARK  163  A    between atoms: _413  and  _414
REMARK  164  A    between atoms: _416  and  _418
REMARK  165  A    between atoms: _418  and  _419
REMARK  166  A    between atoms: _418  and  _421
REMARK  167  A    between atoms: _421  and  _422
REMARK  168  A    between atoms: _422  and  _423
REMARK  169  A    between atoms: _423  and  _424
REMARK  170  A    between atoms: _433  and  _435
REMARK  171  A    between atoms: _435  and  _436
REMARK  172  A    between atoms: _435  and  _438
REMARK  173  A    between atoms: _438  and  _439
REMARK  174  A    between atoms: _439  and  _440
REMARK  175  A    between atoms: _445  and  _447
REMARK  176  A    between atoms: _447  and  _448
REMARK  177  A    between atoms: _450  and  _452
REMARK  178  A    between atoms: _452  and  _453
REMARK  179  A    between atoms: _452  and  _455
REMARK  180  A    between atoms: _455  and  _456
REMARK  181  A    between atoms: _459  and  _461
REMARK  182  A    between atoms: _461  and  _462
REMARK  183  A    between atoms: _461  and  _464
REMARK  184  A    between atoms: _464  and  _465
REMARK  185  A    between atoms: _465  and  _466
REMARK  186  A    between atoms: _469  and  _471
REMARK  187  A    between atoms: _471  and  _472
REMARK  188  A    between atoms: _471  and  _474
REMARK  189  A    between atoms: _474  and  _475
REMARK  190  A    between atoms: _475  and  _476
REMARK  191  A    between atoms: _479  and  _481
REMARK  192  A    between atoms: _481  and  _482
REMARK  193  A    between atoms: _481  and  _484
REMARK  194  A    between atoms: _484  and  _485
REMARK  195  A    between atoms: _488  and  _490
REMARK  196  A    between atoms: _490  and  _491
REMARK  197  A    between atoms: _490  and  _493
REMARK  198  A    between atoms: _493  and  _494
REMARK  199  A    between atoms: _494  and  _495
REMARK  200  A    between atoms: _495  and  _496
REMARK  201  A    between atoms: _505  and  _507
REMARK  202  A    between atoms: _507  and  _508
REMARK  203  A    between atoms: _507  and  _510
REMARK  204  A    between atoms: _510  and  _511
REMARK  205  A    between atoms: _514  and  _516
REMARK  206  A    between atoms: _516  and  _517
REMARK  207  A    between atoms: _520  and  _522
REMARK  208  A    between atoms: _522  and  _523
REMARK  209  A    between atoms: _522  and  _525
REMARK  210  A    between atoms: _528  and  _530
REMARK  211  A    between atoms: _530  and  _531
REMARK  212  A    between atoms: _530  and  _533
REMARK  213  A    between atoms: _533  and  _534
REMARK  214  A    between atoms: _537  and  _539
REMARK  215  A    between atoms: _539  and  _540
REMARK  216  A    between atoms: _539  and  _542
REMARK  217  A    between atoms: _542  and  _543
REMARK  218  A    between atoms: _548  and  _549
REMARK                            x       y       z     vdW  Elec       q    Type
REMARK                         _______ _______ _______ _____ _____    ______ ____
ROOT
ATOM      1  O   HOH     1     -15.839   0.095  -8.719  0.00  0.00    +0.000 OA
ENDROOT
TORSDOF 0
REMARK  Name = ../refined-set-2016/2hw2/2hw2_pocket.pdb
REMARK  218 active torsions:
REMARK  status: ('A' for Active; 'I' for Inactive)
REMARK    1  A    between atoms: _2  and  _3
REMARK    2  A    between atoms: _8  and  _10
REMARK    3  A    between atoms: _10  and  _11
REMARK    4  A    between atoms: _10  and  _13
REMARK    5  A    between atoms: _13  and  _14
REMARK    6  A    between atoms: _20  and  _22
REMARK    7  A    between atoms: _22  and  _23
REMARK    8  A    between atoms: _25  and  _27
REMARK    9  A    between atoms: _27  and  _28
REMARK   10  A    between atoms: _27  and  _30
REMARK   11  A    between atoms: _30  and  _31
REMARK   12  A    between atoms: _33  and  _35
REMARK   13  A    between atoms: _35  and  _36
REMARK   14  A    between atoms: _35  and  _38
REMARK   15  A    between atoms: _38  and  _39
REMARK   16  A    between atoms: _44  and  _46
REMARK   17  A    between atoms: _46  and  _47
REMARK   18  A    between atoms: _46  and  _49
REMARK   19  A    between atoms: _49  and  _50
REMARK   20  A    between atoms: _56  and  _58
REMARK   21  A    between atoms: _58  and  _59
REMARK   22  A    between atoms: _58  and  _61
REMARK   23  A    between atoms: _61  and  _62
REMARK   24  A    between atoms: _62  and  _63
REMARK   25  A    between atoms: _66  and  _68
REMARK   26  A    between atoms: _68  and  _69
REMARK   27  A    between atoms: _68  and  _71
REMARK   28  A    between atoms: _71  and  _72
REMARK   29  A    between atoms: _72  and  _73
REMARK   30  A    between atoms: _75  and  _77
REMARK   31  A    between atoms: _77  and  _78
REMARK   32  A    between atoms: _77  and  _80
REMARK   33  A    between atoms: _80  and  _81
REMARK   34  A    between atoms: _86  and  _87
REMARK   35  A    between atoms: _89  and  _91
REMARK   36  A    between atoms: _91  and  _92
REMARK   37  A    between atoms: _91  and  _94
REMARK   38  A    between atoms: _94  and  _95
REMARK   39  A    between atoms: _98  and  _100
REMARK   40  A    between atoms: _100  and  _101
REMARK   41  A    between atoms: _100  and  _103
REMARK   42  A    between atoms: _103  and  _104
REMARK   43  A    between atoms: _107  and  _109
REMARK   44  A    between atoms: _109  and  _110
REMARK   45  A    between atoms: _109  and  _112
REMARK   46  A    between atoms: _112  and  _113
REMARK   47  A    between atoms: _116  and  _118
REMARK   48  A    between atoms: _118  and  _119
REMARK   49  A    between atoms: _118  and  _121
REMARK   50  A    between atoms: _121  and  _122
REMARK   51  A    between atoms: _125  and  _127
REMARK   52  A    between atoms: _127  and  _128
REMARK   53  A    between atoms: _131  and  _133
REMARK   54  A    between atoms: _133  and  _134
REMARK   55  A    between atoms: _137  and  _139
REMARK   56  A    between atoms: _139  and  _140
REMARK   57  A    between atoms: _139  and  _142
REMARK   58  A    between atoms: _145  and  _147
REMARK   59  A    between atoms: _147  and  _148
REMARK   60  A    between atoms: _147  and  _150
REMARK   61  A    between atoms: _150  and  _151
REMARK   62  A    between atoms: _161  and  _163
REMARK   63  A    between atoms: _163  and  _164
REMARK   64  A    between atoms: _166  and  _168
REMARK   65  A    between atoms: _168  and  _169
REMARK   66  A    between atoms: _172  and  _174
REMARK   67  A    between atoms: _174  and  _175
REMARK   68  A    between atoms: _174  and  _177
REMARK   69  A    between atoms: _177  and  _178
REMARK   70  A    between atoms: _178  and  _179
REMARK   71  A    between atoms: _182  and  _184
REMARK   72  A    between atoms: _184  and  _185
REMARK   73  A    between atoms: _184  and  _187
REMARK   74  A    between atoms: _187  and  _188
REMARK   75  A    between atoms: _191  and  _193
REMARK   76  A    between atoms: _193  and  _194
REMARK   77  A    between atoms: _197  and  _199
REMARK   78  A    between atoms: _199  and  _200
REMARK   79  A    between atoms: _199  and  _202
REMARK   80  A    between atoms: _202  and  _203
REMARK   81  A    between atoms: _207  and  _208
REMARK   82  A    between atoms: _213  and  _215
REMARK   83  A    between atoms: _215  and  _216
REMARK   84  A    between atoms: _215  and  _218
REMARK   85  A    between atoms: _218  and  _219
REMARK   86  A    between atoms: _224  and  _226
REMARK   87  A    between atoms: _226  and  _227
REMARK   88  A    between atoms: _226  and  _229
REMARK   89  A    between atoms: _232  and  _234
REMARK   90  A    between atoms: _234  and  _235
REMARK   91  A    between atoms: _234  and  _237
REMARK   92  A    between atoms: _237  and  _238
REMARK   93  A    between atoms: _241  and  _243
REMARK   94  A    between atoms: _243  and  _244
REMARK   95  A    between atoms: _243  and  _246
REMARK   96  A    between atoms: _246  and  _247
REMARK   97  A    between atoms: _250  and  _252
REMARK   98  A    between atoms: _252  and  _253
REMARK   99  A    between atoms: _252  and  _255
REMARK  100  A    between atoms: _255  and  _256
REMARK  101  A    between atoms: _256  and  _257
REMARK  102  A    between atoms: _257  and  _258
REMARK  103  A    between atoms: _258  and  _259
REMARK  104  A    between atoms: _263  and  _265
REMARK  105  A    between atoms: _265  and  _266
REMARK  106  A    between atoms: _265  and  _268
REMARK  107  A    between atoms: _268  and  _269
REMARK  108  A    between atoms: _269  and  _270
REMARK  109  A    between atoms: _270  and  _271
REMARK  110  A    between atoms: _271  and  _272
REMARK  111  A    between atoms: _276  and  _278
REMARK  112  A    between atoms: _278  and  _279
REMARK  113  A    between atoms: _278  and  _281
REMARK  114  A    between atoms: _281  and  _282
REMARK  115  A    between atoms: _286  and  _287
REMARK  116  A    between atoms: _292  and  _294
REMARK  117  A    between atoms: _294  and  _295
REMARK  118  A    between atoms: _297  and  _299
REMARK  119  A    between atoms: _299  and  _300
REMARK  120  A    between atoms: _299  and  _302
REMARK  121  A    between atoms: _302  and  _303
REMARK  122  A    between atoms: _309  and  _310
REMARK  123  A    between atoms: _315  and  _317
REMARK  124  A    between atoms: _317  and  _318
REMARK  125  A    between atoms: _317  and  _320
REMARK  126  A    between atoms: _320  and  _321
REMARK  127  A    between atoms: _324  and  _326
REMARK  128  A    between atoms: _326  and  _327
REMARK  129  A    between atoms: _326  and  _329
REMARK  130  A    between atoms: _329  and  _330
REMARK  131  A    between atoms: _330  and  _331
REMARK  132  A    between atoms: _331  and  _332
REMARK  133  A    between atoms: _341  and  _343
REMARK  134  A    between atoms: _343  and  _344
REMARK  135  A    between atoms: _343  and  _346
REMARK  136  A    between atoms: _346  and  _347
REMARK  137  A    between atoms: _349  and  _351
REMARK  138  A    between atoms: _351  and  _352
REMARK  139  A    between atoms: _351  and  _354
REMARK  140  A    between atoms: _354  and  _355
REMARK  141  A    between atoms: _360  and  _361
REMARK  142  A    between atoms: _363  and  _365
REMARK  143  A    between atoms: _365  and  _366
REMARK  144  A    between atoms: _365  and  _368
REMARK  145  A    between atoms: _368  and  _369
REMARK  146  A    between atoms: _374  and  _376
REMARK  147  A    between atoms: _376  and  _377
REMARK  148  A    between atoms: _376  and  _379
REMARK  149  A    between atoms: _379  and  _380
REMARK  150  A    between atoms: _380  and  _381
REMARK  151  A    between atoms: _386  and  _388
REMARK  152  A    between atoms: _388  and  _389
REMARK  153  A    between atoms: _388  and  _391
REMARK  154  A    between atoms: _391  and  _392
REMARK  155  A    between atoms: _395  and  _397
REMARK  156  A    between atoms: _397  and  _398
REMARK  157  A    between atoms: _401  and  _403
REMARK  158  A    between atoms: _403  and  _404
REMARK  159  A    between atoms: _407  and  _409
REMARK  160  A    between atoms: _409  and  _410
REMARK  161  A    between atoms: _409  and  _412
REMARK  162  A    between atoms: _412  and  _413
REMARK  163  A    between atoms: _413  and  _414
REMARK  164  A    between atoms: _416  and  _418
REMARK  165  A    between atoms: _418  and  _419
REMARK  166  A    between atoms: _418  and  _421
REMARK  167  A    between atoms: _421  and  _422
REMARK  168  A    between atoms: _422  and  _423
REMARK  169  A    between atoms: _423  and  _424
REMARK  170  A    between atoms: _433  and  _435
REMARK  171  A    between atoms: _435  and  _436
REMARK  172  A    between atoms: _435  and  _438
REMARK  173  A    between atoms: _438  and  _439
REMARK  174  A    between atoms: _439  and  _440
REMARK  175  A    between atoms: _445  and  _447
REMARK  176  A    between atoms: _447  and  _448
REMARK  177  A    between atoms: _450  and  _452
REMARK  178  A    between atoms: _452  and  _453
REMARK  179  A    between atoms: _452  and  _455
REMARK  180  A    between atoms: _455  and  _456
REMARK  181  A    between atoms: _459  and  _461
REMARK  182  A    between atoms: _461  and  _462
REMARK  183  A    between atoms: _461  and  _464
REMARK  184  A    between atoms: _464  and  _465
REMARK  185  A    between atoms: _465  and  _466
REMARK  186  A    between atoms: _469  and  _471
REMARK  187  A    between atoms: _471  and  _472
REMARK  188  A    between atoms: _471  and  _474
REMARK  189  A    between atoms: _474  and  _475
REMARK  190  A    between atoms: _475  and  _476
REMARK  191  A    between atoms: _479  and  _481
REMARK  192  A    between atoms: _481  and  _482
REMARK  193  A    between atoms: _481  and  _484
REMARK  194  A    between atoms: _484  and  _485
REMARK  195  A    between atoms: _488  and  _490
REMARK  196  A    between atoms: _490  and  _491
REMARK  197  A    between atoms: _490  and  _493
REMARK  198  A    between atoms: _493  and  _494
REMARK  199  A    between atoms: _494  and  _495
REMARK  200  A    between atoms: _495  and  _496
REMARK  201  A    between atoms: _505  and  _507
REMARK  202  A    between atoms: _507  and  _508
REMARK  203  A    between atoms: _507  and  _510
REMARK  204  A    between atoms: _510  and  _511
REMARK  205  A    between atoms: _514  and  _516
REMARK  206  A    between atoms: _516  and  _517
REMARK  207  A    between atoms: _520  and  _522
REMARK  208  A    between atoms: _522  and  _523
REMARK  209  A    between atoms: _522  and  _525
REMARK  210  A    between atoms: _528  and  _530
REMARK  211  A    between atoms: _530  and  _531
REMARK  212  A    between atoms: _530  and  _533
REMARK  213  A    between atoms: _533  and  _534
REMARK  214  A    between atoms: _537  and  _539
REMARK  215  A    between atoms: _539  and  _540
REMARK  216  A    between atoms: _539  and  _542
REMARK  217  A    between atoms: _542  and  _543
REMARK  218  A    between atoms: _548  and  _549
REMARK                            x       y       z     vdW  Elec       q    Type
REMARK                         _______ _______ _______ _____ _____    ______ ____
ROOT
ATOM      1  O   HOH     1     -24.734  11.292 -20.997  0.00  0.00    +0.000 OA
ENDROOT
TORSDOF 0
REMARK  Name = ../refined-set-2016/2hw2/2hw2_pocket.pdb
REMARK  218 active torsions:
REMARK  status: ('A' for Active; 'I' for Inactive)
REMARK    1  A    between atoms: _2  and  _3
REMARK    2  A    between atoms: _8  and  _10
REMARK    3  A    between atoms: _10  and  _11
REMARK    4  A    between atoms: _10  and  _13
REMARK    5  A    between atoms: _13  and  _14
REMARK    6  A    between atoms: _20  and  _22
REMARK    7  A    between atoms: _22  and  _23
REMARK    8  A    between atoms: _25  and  _27
REMARK    9  A    between atoms: _27  and  _28
REMARK   10  A    between atoms: _27  and  _30
REMARK   11  A    between atoms: _30  and  _31
REMARK   12  A    between atoms: _33  and  _35
REMARK   13  A    between atoms: _35  and  _36
REMARK   14  A    between atoms: _35  and  _38
REMARK   15  A    between atoms: _38  and  _39
REMARK   16  A    between atoms: _44  and  _46
REMARK   17  A    between atoms: _46  and  _47
REMARK   18  A    between atoms: _46  and  _49
REMARK   19  A    between atoms: _49  and  _50
REMARK   20  A    between atoms: _56  and  _58
REMARK   21  A    between atoms: _58  and  _59
REMARK   22  A    between atoms: _58  and  _61
REMARK   23  A    between atoms: _61  and  _62
REMARK   24  A    between atoms: _62  and  _63
REMARK   25  A    between atoms: _66  and  _68
REMARK   26  A    between atoms: _68  and  _69
REMARK   27  A    between atoms: _68  and  _71
REMARK   28  A    between atoms: _71  and  _72
REMARK   29  A    between atoms: _72  and  _73
REMARK   30  A    between atoms: _75  and  _77
REMARK   31  A    between atoms: _77  and  _78
REMARK   32  A    between atoms: _77  and  _80
REMARK   33  A    between atoms: _80  and  _81
REMARK   34  A    between atoms: _86  and  _87
REMARK   35  A    between atoms: _89  and  _91
REMARK   36  A    between atoms: _91  and  _92
REMARK   37  A    between atoms: _91  and  _94
REMARK   38  A    between atoms: _94  and  _95
REMARK   39  A    between atoms: _98  and  _100
REMARK   40  A    between atoms: _100  and  _101
REMARK   41  A    between atoms: _100  and  _103
REMARK   42  A    between atoms: _103  and  _104
REMARK   43  A    between atoms: _107  and  _109
REMARK   44  A    between atoms: _109  and  _110
REMARK   45  A    between atoms: _109  and  _112
REMARK   46  A    between atoms: _112  and  _113
REMARK   47  A    between atoms: _116  and  _118
REMARK   48  A    between atoms: _118  and  _119
REMARK   49  A    between atoms: _118  and  _121
REMARK   50  A    between atoms: _121  and  _122
REMARK   51  A    between atoms: _125  and  _127
REMARK   52  A    between atoms: _127  and  _128
REMARK   53  A    between atoms: _131  and  _133
REMARK   54  A    between atoms: _133  and  _134
REMARK   55  A    between atoms: _137  and  _139
REMARK   56  A    between atoms: _139  and  _140
REMARK   57  A    between atoms: _139  and  _142
REMARK   58  A    between atoms: _145  and  _147
REMARK   59  A    between atoms: _147  and  _148
REMARK   60  A    between atoms: _147  and  _150
REMARK   61  A    between atoms: _150  and  _151
REMARK   62  A    between atoms: _161  and  _163
REMARK   63  A    between atoms: _163  and  _164
REMARK   64  A    between atoms: _166  and  _168
REMARK   65  A    between atoms: _168  and  _169
REMARK   66  A    between atoms: _172  and  _174
REMARK   67  A    between atoms: _174  and  _175
REMARK   68  A    between atoms: _174  and  _177
REMARK   69  A    between atoms: _177  and  _178
REMARK   70  A    between atoms: _178  and  _179
REMARK   71  A    between atoms: _182  and  _184
REMARK   72  A    between atoms: _184  and  _185
REMARK   73  A    between atoms: _184  and  _187
REMARK   74  A    between atoms: _187  and  _188
REMARK   75  A    between atoms: _191  and  _193
REMARK   76  A    between atoms: _193  and  _194
REMARK   77  A    between atoms: _197  and  _199
REMARK   78  A    between atoms: _199  and  _200
REMARK   79  A    between atoms: _199  and  _202
REMARK   80  A    between atoms: _202  and  _203
REMARK   81  A    between atoms: _207  and  _208
REMARK   82  A    between atoms: _213  and  _215
REMARK   83  A    between atoms: _215  and  _216
REMARK   84  A    between atoms: _215  and  _218
REMARK   85  A    between atoms: _218  and  _219
REMARK   86  A    between atoms: _224  and  _226
REMARK   87  A    between atoms: _226  and  _227
REMARK   88  A    between atoms: _226  and  _229
REMARK   89  A    between atoms: _232  and  _234
REMARK   90  A    between atoms: _234  and  _235
REMARK   91  A    between atoms: _234  and  _237
REMARK   92  A    between atoms: _237  and  _238
REMARK   93  A    between atoms: _241  and  _243
REMARK   94  A    between atoms: _243  and  _244
REMARK   95  A    between atoms: _243  and  _246
REMARK   96  A    between atoms: _246  and  _247
REMARK   97  A    between atoms: _250  and  _252
REMARK   98  A    between atoms: _252  and  _253
REMARK   99  A    between atoms: _252  and  _255
REMARK  100  A    between atoms: _255  and  _256
REMARK  101  A    between atoms: _256  and  _257
REMARK  102  A    between atoms: _257  and  _258
REMARK  103  A    between atoms: _258  and  _259
REMARK  104  A    between atoms: _263  and  _265
REMARK  105  A    between atoms: _265  and  _266
REMARK  106  A    between atoms: _265  and  _268
REMARK  107  A    between atoms: _268  and  _269
REMARK  108  A    between atoms: _269  and  _270
REMARK  109  A    between atoms: _270  and  _271
REMARK  110  A    between atoms: _271  and  _272
REMARK  111  A    between atoms: _276  and  _278
REMARK  112  A    between atoms: _278  and  _279
REMARK  113  A    between atoms: _278  and  _281
REMARK  114  A    between atoms: _281  and  _282
REMARK  115  A    between atoms: _286  and  _287
REMARK  116  A    between atoms: _292  and  _294
REMARK  117  A    between atoms: _294  and  _295
REMARK  118  A    between atoms: _297  and  _299
REMARK  119  A    between atoms: _299  and  _300
REMARK  120  A    between atoms: _299  and  _302
REMARK  121  A    between atoms: _302  and  _303
REMARK  122  A    between atoms: _309  and  _310
REMARK  123  A    between atoms: _315  and  _317
REMARK  124  A    between atoms: _317  and  _318
REMARK  125  A    between atoms: _317  and  _320
REMARK  126  A    between atoms: _320  and  _321
REMARK  127  A    between atoms: _324  and  _326
REMARK  128  A    between atoms: _326  and  _327
REMARK  129  A    between atoms: _326  and  _329
REMARK  130  A    between atoms: _329  and  _330
REMARK  131  A    between atoms: _330  and  _331
REMARK  132  A    between atoms: _331  and  _332
REMARK  133  A    between atoms: _341  and  _343
REMARK  134  A    between atoms: _343  and  _344
REMARK  135  A    between atoms: _343  and  _346
REMARK  136  A    between atoms: _346  and  _347
REMARK  137  A    between atoms: _349  and  _351
REMARK  138  A    between atoms: _351  and  _352
REMARK  139  A    between atoms: _351  and  _354
REMARK  140  A    between atoms: _354  and  _355
REMARK  141  A    between atoms: _360  and  _361
REMARK  142  A    between atoms: _363  and  _365
REMARK  143  A    between atoms: _365  and  _366
REMARK  144  A    between atoms: _365  and  _368
REMARK  145  A    between atoms: _368  and  _369
REMARK  146  A    between atoms: _374  and  _376
REMARK  147  A    between atoms: _376  and  _377
REMARK  148  A    between atoms: _376  and  _379
REMARK  149  A    between atoms: _379  and  _380
REMARK  150  A    between atoms: _380  and  _381
REMARK  151  A    between atoms: _386  and  _388
REMARK  152  A    between atoms: _388  and  _389
REMARK  153  A    between atoms: _388  and  _391
REMARK  154  A    between atoms: _391  and  _392
REMARK  155  A    between atoms: _395  and  _397
REMARK  156  A    between atoms: _397  and  _398
REMARK  157  A    between atoms: _401  and  _403
REMARK  158  A    between atoms: _403  and  _404
REMARK  159  A    between atoms: _407  and  _409
REMARK  160  A    between atoms: _409  and  _410
REMARK  161  A    between atoms: _409  and  _412
REMARK  162  A    between atoms: _412  and  _413
REMARK  163  A    between atoms: _413  and  _414
REMARK  164  A    between atoms: _416  and  _418
REMARK  165  A    between atoms: _418  and  _419
REMARK  166  A    between atoms: _418  and  _421
REMARK  167  A    between atoms: _421  and  _422
REMARK  168  A    between atoms: _422  and  _423
REMARK  169  A    between atoms: _423  and  _424
REMARK  170  A    between atoms: _433  and  _435
REMARK  171  A    between atoms: _435  and  _436
REMARK  172  A    between atoms: _435  and  _438
REMARK  173  A    between atoms: _438  and  _439
REMARK  174  A    between atoms: _439  and  _440
REMARK  175  A    between atoms: _445  and  _447
REMARK  176  A    between atoms: _447  and  _448
REMARK  177  A    between atoms: _450  and  _452
REMARK  178  A    between atoms: _452  and  _453
REMARK  179  A    between atoms: _452  and  _455
REMARK  180  A    between atoms: _455  and  _456
REMARK  181  A    between atoms: _459  and  _461
REMARK  182  A    between atoms: _461  and  _462
REMARK  183  A    between atoms: _461  and  _464
REMARK  184  A    between atoms: _464  and  _465
REMARK  185  A    between atoms: _465  and  _466
REMARK  186  A    between atoms: _469  and  _471
REMARK  187  A    between atoms: _471  and  _472
REMARK  188  A    between atoms: _471  and  _474
REMARK  189  A    between atoms: _474  and  _475
REMARK  190  A    between atoms: _475  and  _476
REMARK  191  A    between atoms: _479  and  _481
REMARK  192  A    between atoms: _481  and  _482
REMARK  193  A    between atoms: _481  and  _484
REMARK  194  A    between atoms: _484  and  _485
REMARK  195  A    between atoms: _488  and  _490
REMARK  196  A    between atoms: _490  and  _491
REMARK  197  A    between atoms: _490  and  _493
REMARK  198  A    between atoms: _493  and  _494
REMARK  199  A    between atoms: _494  and  _495
REMARK  200  A    between atoms: _495  and  _496
REMARK  201  A    between atoms: _505  and  _507
REMARK  202  A    between atoms: _507  and  _508
REMARK  203  A    between atoms: _507  and  _510
REMARK  204  A    between atoms: _510  and  _511
REMARK  205  A    between atoms: _514  and  _516
REMARK  206  A    between atoms: _516  and  _517
REMARK  207  A    between atoms: _520  and  _522
REMARK  208  A    between atoms: _522  and  _523
REMARK  209  A    between atoms: _522  and  _525
REMARK  210  A    between atoms: _528  and  _530
REMARK  211  A    between atoms: _530  and  _531
REMARK  212  A    between atoms: _530  and  _533
REMARK  213  A    between atoms: _533  and  _534
REMARK  214  A    between atoms: _537  and  _539
REMARK  215  A    between atoms: _539  and  _540
REMARK  216  A    between atoms: _539  and  _542
REMARK  217  A    between atoms: _542  and  _543
REMARK  218  A    between atoms: _548  and  _549
REMARK                            x       y       z     vdW  Elec       q    Type
REMARK                         _______ _______ _______ _____ _____    ______ ____
ROOT
ATOM      1  O   HOH     1     -24.882  12.070 -18.405  0.00  0.00    +0.000 OA
ENDROOT
TORSDOF 0
REMARK  Name = ../refined-set-2016/2hw2/2hw2_pocket.pdb
REMARK  218 active torsions:
REMARK  status: ('A' for Active; 'I' for Inactive)
REMARK    1  A    between atoms: _2  and  _3
REMARK    2  A    between atoms: _8  and  _10
REMARK    3  A    between atoms: _10  and  _11
REMARK    4  A    between atoms: _10  and  _13
REMARK    5  A    between atoms: _13  and  _14
REMARK    6  A    between atoms: _20  and  _22
REMARK    7  A    between atoms: _22  and  _23
REMARK    8  A    between atoms: _25  and  _27
REMARK    9  A    between atoms: _27  and  _28
REMARK   10  A    between atoms: _27  and  _30
REMARK   11  A    between atoms: _30  and  _31
REMARK   12  A    between atoms: _33  and  _35
REMARK   13  A    between atoms: _35  and  _36
REMARK   14  A    between atoms: _35  and  _38
REMARK   15  A    between atoms: _38  and  _39
REMARK   16  A    between atoms: _44  and  _46
REMARK   17  A    between atoms: _46  and  _47
REMARK   18  A    between atoms: _46  and  _49
REMARK   19  A    between atoms: _49  and  _50
REMARK   20  A    between atoms: _56  and  _58
REMARK   21  A    between atoms: _58  and  _59
REMARK   22  A    between atoms: _58  and  _61
REMARK   23  A    between atoms: _61  and  _62
REMARK   24  A    between atoms: _62  and  _63
REMARK   25  A    between atoms: _66  and  _68
REMARK   26  A    between atoms: _68  and  _69
REMARK   27  A    between atoms: _68  and  _71
REMARK   28  A    between atoms: _71  and  _72
REMARK   29  A    between atoms: _72  and  _73
REMARK   30  A    between atoms: _75  and  _77
REMARK   31  A    between atoms: _77  and  _78
REMARK   32  A    between atoms: _77  and  _80
REMARK   33  A    between atoms: _80  and  _81
REMARK   34  A    between atoms: _86  and  _87
REMARK   35  A    between atoms: _89  and  _91
REMARK   36  A    between atoms: _91  and  _92
REMARK   37  A    between atoms: _91  and  _94
REMARK   38  A    between atoms: _94  and  _95
REMARK   39  A    between atoms: _98  and  _100
REMARK   40  A    between atoms: _100  and  _101
REMARK   41  A    between atoms: _100  and  _103
REMARK   42  A    between atoms: _103  and  _104
REMARK   43  A    between atoms: _107  and  _109
REMARK   44  A    between atoms: _109  and  _110
REMARK   45  A    between atoms: _109  and  _112
REMARK   46  A    between atoms: _112  and  _113
REMARK   47  A    between atoms: _116  and  _118
REMARK   48  A    between atoms: _118  and  _119
REMARK   49  A    between atoms: _118  and  _121
REMARK   50  A    between atoms: _121  and  _122
REMARK   51  A    between atoms: _125  and  _127
REMARK   52  A    between atoms: _127  and  _128
REMARK   53  A    between atoms: _131  and  _133
REMARK   54  A    between atoms: _133  and  _134
REMARK   55  A    between atoms: _137  and  _139
REMARK   56  A    between atoms: _139  and  _140
REMARK   57  A    between atoms: _139  and  _142
REMARK   58  A    between atoms: _145  and  _147
REMARK   59  A    between atoms: _147  and  _148
REMARK   60  A    between atoms: _147  and  _150
REMARK   61  A    between atoms: _150  and  _151
REMARK   62  A    between atoms: _161  and  _163
REMARK   63  A    between atoms: _163  and  _164
REMARK   64  A    between atoms: _166  and  _168
REMARK   65  A    between atoms: _168  and  _169
REMARK   66  A    between atoms: _172  and  _174
REMARK   67  A    between atoms: _174  and  _175
REMARK   68  A    between atoms: _174  and  _177
REMARK   69  A    between atoms: _177  and  _178
REMARK   70  A    between atoms: _178  and  _179
REMARK   71  A    between atoms: _182  and  _184
REMARK   72  A    between atoms: _184  and  _185
REMARK   73  A    between atoms: _184  and  _187
REMARK   74  A    between atoms: _187  and  _188
REMARK   75  A    between atoms: _191  and  _193
REMARK   76  A    between atoms: _193  and  _194
REMARK   77  A    between atoms: _197  and  _199
REMARK   78  A    between atoms: _199  and  _200
REMARK   79  A    between atoms: _199  and  _202
REMARK   80  A    between atoms: _202  and  _203
REMARK   81  A    between atoms: _207  and  _208
REMARK   82  A    between atoms: _213  and  _215
REMARK   83  A    between atoms: _215  and  _216
REMARK   84  A    between atoms: _215  and  _218
REMARK   85  A    between atoms: _218  and  _219
REMARK   86  A    between atoms: _224  and  _226
REMARK   87  A    between atoms: _226  and  _227
REMARK   88  A    between atoms: _226  and  _229
REMARK   89  A    between atoms: _232  and  _234
REMARK   90  A    between atoms: _234  and  _235
REMARK   91  A    between atoms: _234  and  _237
REMARK   92  A    between atoms: _237  and  _238
REMARK   93  A    between atoms: _241  and  _243
REMARK   94  A    between atoms: _243  and  _244
REMARK   95  A    between atoms: _243  and  _246
REMARK   96  A    between atoms: _246  and  _247
REMARK   97  A    between atoms: _250  and  _252
REMARK   98  A    between atoms: _252  and  _253
REMARK   99  A    between atoms: _252  and  _255
REMARK  100  A    between atoms: _255  and  _256
REMARK  101  A    between atoms: _256  and  _257
REMARK  102  A    between atoms: _257  and  _258
REMARK  103  A    between atoms: _258  and  _259
REMARK  104  A    between atoms: _263  and  _265
REMARK  105  A    between atoms: _265  and  _266
REMARK  106  A    between atoms: _265  and  _268
REMARK  107  A    between atoms: _268  and  _269
REMARK  108  A    between atoms: _269  and  _270
REMARK  109  A    between atoms: _270  and  _271
REMARK  110  A    between atoms: _271  and  _272
REMARK  111  A    between atoms: _276  and  _278
REMARK  112  A    between atoms: _278  and  _279
REMARK  113  A    between atoms: _278  and  _281
REMARK  114  A    between atoms: _281  and  _282
REMARK  115  A    between atoms: _286  and  _287
REMARK  116  A    between atoms: _292  and  _294
REMARK  117  A    between atoms: _294  and  _295
REMARK  118  A    between atoms: _297  and  _299
REMARK  119  A    between atoms: _299  and  _300
REMARK  120  A    between atoms: _299  and  _302
REMARK  121  A    between atoms: _302  and  _303
REMARK  122  A    between atoms: _309  and  _310
REMARK  123  A    between atoms: _315  and  _317
REMARK  124  A    between atoms: _317  and  _318
REMARK  125  A    between atoms: _317  and  _320
REMARK  126  A    between atoms: _320  and  _321
REMARK  127  A    between atoms: _324  and  _326
REMARK  128  A    between atoms: _326  and  _327
REMARK  129  A    between atoms: _326  and  _329
REMARK  130  A    between atoms: _329  and  _330
REMARK  131  A    between atoms: _330  and  _331
REMARK  132  A    between atoms: _331  and  _332
REMARK  133  A    between atoms: _341  and  _343
REMARK  134  A    between atoms: _343  and  _344
REMARK  135  A    between atoms: _343  and  _346
REMARK  136  A    between atoms: _346  and  _347
REMARK  137  A    between atoms: _349  and  _351
REMARK  138  A    between atoms: _351  and  _352
REMARK  139  A    between atoms: _351  and  _354
REMARK  140  A    between atoms: _354  and  _355
REMARK  141  A    between atoms: _360  and  _361
REMARK  142  A    between atoms: _363  and  _365
REMARK  143  A    between atoms: _365  and  _366
REMARK  144  A    between atoms: _365  and  _368
REMARK  145  A    between atoms: _368  and  _369
REMARK  146  A    between atoms: _374  and  _376
REMARK  147  A    between atoms: _376  and  _377
REMARK  148  A    between atoms: _376  and  _379
REMARK  149  A    between atoms: _379  and  _380
REMARK  150  A    between atoms: _380  and  _381
REMARK  151  A    between atoms: _386  and  _388
REMARK  152  A    between atoms: _388  and  _389
REMARK  153  A    between atoms: _388  and  _391
REMARK  154  A    between atoms: _391  and  _392
REMARK  155  A    between atoms: _395  and  _397
REMARK  156  A    between atoms: _397  and  _398
REMARK  157  A    between atoms: _401  and  _403
REMARK  158  A    between atoms: _403  and  _404
REMARK  159  A    between atoms: _407  and  _409
REMARK  160  A    between atoms: _409  and  _410
REMARK  161  A    between atoms: _409  and  _412
REMARK  162  A    between atoms: _412  and  _413
REMARK  163  A    between atoms: _413  and  _414
REMARK  164  A    between atoms: _416  and  _418
REMARK  165  A    between atoms: _418  and  _419
REMARK  166  A    between atoms: _418  and  _421
REMARK  167  A    between atoms: _421  and  _422
REMARK  168  A    between atoms: _422  and  _423
REMARK  169  A    between atoms: _423  and  _424
REMARK  170  A    between atoms: _433  and  _435
REMARK  171  A    between atoms: _435  and  _436
REMARK  172  A    between atoms: _435  and  _438
REMARK  173  A    between atoms: _438  and  _439
REMARK  174  A    between atoms: _439  and  _440
REMARK  175  A    between atoms: _445  and  _447
REMARK  176  A    between atoms: _447  and  _448
REMARK  177  A    between atoms: _450  and  _452
REMARK  178  A    between atoms: _452  and  _453
REMARK  179  A    between atoms: _452  and  _455
REMARK  180  A    between atoms: _455  and  _456
REMARK  181  A    between atoms: _459  and  _461
REMARK  182  A    between atoms: _461  and  _462
REMARK  183  A    between atoms: _461  and  _464
REMARK  184  A    between atoms: _464  and  _465
REMARK  185  A    between atoms: _465  and  _466
REMARK  186  A    between atoms: _469  and  _471
REMARK  187  A    between atoms: _471  and  _472
REMARK  188  A    between atoms: _471  and  _474
REMARK  189  A    between atoms: _474  and  _475
REMARK  190  A    between atoms: _475  and  _476
REMARK  191  A    between atoms: _479  and  _481
REMARK  192  A    between atoms: _481  and  _482
REMARK  193  A    between atoms: _481  and  _484
REMARK  194  A    between atoms: _484  and  _485
REMARK  195  A    between atoms: _488  and  _490
REMARK  196  A    between atoms: _490  and  _491
REMARK  197  A    between atoms: _490  and  _493
REMARK  198  A    between atoms: _493  and  _494
REMARK  199  A    between atoms: _494  and  _495
REMARK  200  A    between atoms: _495  and  _496
REMARK  201  A    between atoms: _505  and  _507
REMARK  202  A    between atoms: _507  and  _508
REMARK  203  A    between atoms: _507  and  _510
REMARK  204  A    between atoms: _510  and  _511
REMARK  205  A    between atoms: _514  and  _516
REMARK  206  A    between atoms: _516  and  _517
REMARK  207  A    between atoms: _520  and  _522
REMARK  208  A    between atoms: _522  and  _523
REMARK  209  A    between atoms: _522  and  _525
REMARK  210  A    between atoms: _528  and  _530
REMARK  211  A    between atoms: _530  and  _531
REMARK  212  A    between atoms: _530  and  _533
REMARK  213  A    between atoms: _533  and  _534
REMARK  214  A    between atoms: _537  and  _539
REMARK  215  A    between atoms: _539  and  _540
REMARK  216  A    between atoms: _539  and  _542
REMARK  217  A    between atoms: _542  and  _543
REMARK  218  A    between atoms: _548  and  _549
REMARK                            x       y       z     vdW  Elec       q    Type
REMARK                         _______ _______ _______ _____ _____    ______ ____
ROOT
ATOM      1  O   HOH     1     -13.078  12.214 -24.311  0.00  0.00    +0.000 OA
ENDROOT
TORSDOF 0
REMARK  Name = ../refined-set-2016/2hw2/2hw2_pocket.pdb
REMARK  218 active torsions:
REMARK  status: ('A' for Active; 'I' for Inactive)
REMARK    1  A    between atoms: _2  and  _3
REMARK    2  A    between atoms: _8  and  _10
REMARK    3  A    between atoms: _10  and  _11
REMARK    4  A    between atoms: _10  and  _13
REMARK    5  A    between atoms: _13  and  _14
REMARK    6  A    between atoms: _20  and  _22
REMARK    7  A    between atoms: _22  and  _23
REMARK    8  A    between atoms: _25  and  _27
REMARK    9  A    between atoms: _27  and  _28
REMARK   10  A    between atoms: _27  and  _30
REMARK   11  A    between atoms: _30  and  _31
REMARK   12  A    between atoms: _33  and  _35
REMARK   13  A    between atoms: _35  and  _36
REMARK   14  A    between atoms: _35  and  _38
REMARK   15  A    between atoms: _38  and  _39
REMARK   16  A    between atoms: _44  and  _46
REMARK   17  A    between atoms: _46  and  _47
REMARK   18  A    between atoms: _46  and  _49
REMARK   19  A    between atoms: _49  and  _50
REMARK   20  A    between atoms: _56  and  _58
REMARK   21  A    between atoms: _58  and  _59
REMARK   22  A    between atoms: _58  and  _61
REMARK   23  A    between atoms: _61  and  _62
REMARK   24  A    between atoms: _62  and  _63
REMARK   25  A    between atoms: _66  and  _68
REMARK   26  A    between atoms: _68  and  _69
REMARK   27  A    between atoms: _68  and  _71
REMARK   28  A    between atoms: _71  and  _72
REMARK   29  A    between atoms: _72  and  _73
REMARK   30  A    between atoms: _75  and  _77
REMARK   31  A    between atoms: _77  and  _78
REMARK   32  A    between atoms: _77  and  _80
REMARK   33  A    between atoms: _80  and  _81
REMARK   34  A    between atoms: _86  and  _87
REMARK   35  A    between atoms: _89  and  _91
REMARK   36  A    between atoms: _91  and  _92
REMARK   37  A    between atoms: _91  and  _94
REMARK   38  A    between atoms: _94  and  _95
REMARK   39  A    between atoms: _98  and  _100
REMARK   40  A    between atoms: _100  and  _101
REMARK   41  A    between atoms: _100  and  _103
REMARK   42  A    between atoms: _103  and  _104
REMARK   43  A    between atoms: _107  and  _109
REMARK   44  A    between atoms: _109  and  _110
REMARK   45  A    between atoms: _109  and  _112
REMARK   46  A    between atoms: _112  and  _113
REMARK   47  A    between atoms: _116  and  _118
REMARK   48  A    between atoms: _118  and  _119
REMARK   49  A    between atoms: _118  and  _121
REMARK   50  A    between atoms: _121  and  _122
REMARK   51  A    between atoms: _125  and  _127
REMARK   52  A    between atoms: _127  and  _128
REMARK   53  A    between atoms: _131  and  _133
REMARK   54  A    between atoms: _133  and  _134
REMARK   55  A    between atoms: _137  and  _139
REMARK   56  A    between atoms: _139  and  _140
REMARK   57  A    between atoms: _139  and  _142
REMARK   58  A    between atoms: _145  and  _147
REMARK   59  A    between atoms: _147  and  _148
REMARK   60  A    between atoms: _147  and  _150
REMARK   61  A    between atoms: _150  and  _151
REMARK   62  A    between atoms: _161  and  _163
REMARK   63  A    between atoms: _163  and  _164
REMARK   64  A    between atoms: _166  and  _168
REMARK   65  A    between atoms: _168  and  _169
REMARK   66  A    between atoms: _172  and  _174
REMARK   67  A    between atoms: _174  and  _175
REMARK   68  A    between atoms: _174  and  _177
REMARK   69  A    between atoms: _177  and  _178
REMARK   70  A    between atoms: _178  and  _179
REMARK   71  A    between atoms: _182  and  _184
REMARK   72  A    between atoms: _184  and  _185
REMARK   73  A    between atoms: _184  and  _187
REMARK   74  A    between atoms: _187  and  _188
REMARK   75  A    between atoms: _191  and  _193
REMARK   76  A    between atoms: _193  and  _194
REMARK   77  A    between atoms: _197  and  _199
REMARK   78  A    between atoms: _199  and  _200
REMARK   79  A    between atoms: _199  and  _202
REMARK   80  A    between atoms: _202  and  _203
REMARK   81  A    between atoms: _207  and  _208
REMARK   82  A    between atoms: _213  and  _215
REMARK   83  A    between atoms: _215  and  _216
REMARK   84  A    between atoms: _215  and  _218
REMARK   85  A    between atoms: _218  and  _219
REMARK   86  A    between atoms: _224  and  _226
REMARK   87  A    between atoms: _226  and  _227
REMARK   88  A    between atoms: _226  and  _229
REMARK   89  A    between atoms: _232  and  _234
REMARK   90  A    between atoms: _234  and  _235
REMARK   91  A    between atoms: _234  and  _237
REMARK   92  A    between atoms: _237  and  _238
REMARK   93  A    between atoms: _241  and  _243
REMARK   94  A    between atoms: _243  and  _244
REMARK   95  A    between atoms: _243  and  _246
REMARK   96  A    between atoms: _246  and  _247
REMARK   97  A    between atoms: _250  and  _252
REMARK   98  A    between atoms: _252  and  _253
REMARK   99  A    between atoms: _252  and  _255
REMARK  100  A    between atoms: _255  and  _256
REMARK  101  A    between atoms: _256  and  _257
REMARK  102  A    between atoms: _257  and  _258
REMARK  103  A    between atoms: _258  and  _259
REMARK  104  A    between atoms: _263  and  _265
REMARK  105  A    between atoms: _265  and  _266
REMARK  106  A    between atoms: _265  and  _268
REMARK  107  A    between atoms: _268  and  _269
REMARK  108  A    between atoms: _269  and  _270
REMARK  109  A    between atoms: _270  and  _271
REMARK  110  A    between atoms: _271  and  _272
REMARK  111  A    between atoms: _276  and  _278
REMARK  112  A    between atoms: _278  and  _279
REMARK  113  A    between atoms: _278  and  _281
REMARK  114  A    between atoms: _281  and  _282
REMARK  115  A    between atoms: _286  and  _287
REMARK  116  A    between atoms: _292  and  _294
REMARK  117  A    between atoms: _294  and  _295
REMARK  118  A    between atoms: _297  and  _299
REMARK  119  A    between atoms: _299  and  _300
REMARK  120  A    between atoms: _299  and  _302
REMARK  121  A    between atoms: _302  and  _303
REMARK  122  A    between atoms: _309  and  _310
REMARK  123  A    between atoms: _315  and  _317
REMARK  124  A    between atoms: _317  and  _318
REMARK  125  A    between atoms: _317  and  _320
REMARK  126  A    between atoms: _320  and  _321
REMARK  127  A    between atoms: _324  and  _326
REMARK  128  A    between atoms: _326  and  _327
REMARK  129  A    between atoms: _326  and  _329
REMARK  130  A    between atoms: _329  and  _330
REMARK  131  A    between atoms: _330  and  _331
REMARK  132  A    between atoms: _331  and  _332
REMARK  133  A    between atoms: _341  and  _343
REMARK  134  A    between atoms: _343  and  _344
REMARK  135  A    between atoms: _343  and  _346
REMARK  136  A    between atoms: _346  and  _347
REMARK  137  A    between atoms: _349  and  _351
REMARK  138  A    between atoms: _351  and  _352
REMARK  139  A    between atoms: _351  and  _354
REMARK  140  A    between atoms: _354  and  _355
REMARK  141  A    between atoms: _360  and  _361
REMARK  142  A    between atoms: _363  and  _365
REMARK  143  A    between atoms: _365  and  _366
REMARK  144  A    between atoms: _365  and  _368
REMARK  145  A    between atoms: _368  and  _369
REMARK  146  A    between atoms: _374  and  _376
REMARK  147  A    between atoms: _376  and  _377
REMARK  148  A    between atoms: _376  and  _379
REMARK  149  A    between atoms: _379  and  _380
REMARK  150  A    between atoms: _380  and  _381
REMARK  151  A    between atoms: _386  and  _388
REMARK  152  A    between atoms: _388  and  _389
REMARK  153  A    between atoms: _388  and  _391
REMARK  154  A    between atoms: _391  and  _392
REMARK  155  A    between atoms: _395  and  _397
REMARK  156  A    between atoms: _397  and  _398
REMARK  157  A    between atoms: _401  and  _403
REMARK  158  A    between atoms: _403  and  _404
REMARK  159  A    between atoms: _407  and  _409
REMARK  160  A    between atoms: _409  and  _410
REMARK  161  A    between atoms: _409  and  _412
REMARK  162  A    between atoms: _412  and  _413
REMARK  163  A    between atoms: _413  and  _414
REMARK  164  A    between atoms: _416  and  _418
REMARK  165  A    between atoms: _418  and  _419
REMARK  166  A    between atoms: _418  and  _421
REMARK  167  A    between atoms: _421  and  _422
REMARK  168  A    between atoms: _422  and  _423
REMARK  169  A    between atoms: _423  and  _424
REMARK  170  A    between atoms: _433  and  _435
REMARK  171  A    between atoms: _435  and  _436
REMARK  172  A    between atoms: _435  and  _438
REMARK  173  A    between atoms: _438  and  _439
REMARK  174  A    between atoms: _439  and  _440
REMARK  175  A    between atoms: _445  and  _447
REMARK  176  A    between atoms: _447  and  _448
REMARK  177  A    between atoms: _450  and  _452
REMARK  178  A    between atoms: _452  and  _453
REMARK  179  A    between atoms: _452  and  _455
REMARK  180  A    between atoms: _455  and  _456
REMARK  181  A    between atoms: _459  and  _461
REMARK  182  A    between atoms: _461  and  _462
REMARK  183  A    between atoms: _461  and  _464
REMARK  184  A    between atoms: _464  and  _465
REMARK  185  A    between atoms: _465  and  _466
REMARK  186  A    between atoms: _469  and  _471
REMARK  187  A    between atoms: _471  and  _472
REMARK  188  A    between atoms: _471  and  _474
REMARK  189  A    between atoms: _474  and  _475
REMARK  190  A    between atoms: _475  and  _476
REMARK  191  A    between atoms: _479  and  _481
REMARK  192  A    between atoms: _481  and  _482
REMARK  193  A    between atoms: _481  and  _484
REMARK  194  A    between atoms: _484  and  _485
REMARK  195  A    between atoms: _488  and  _490
REMARK  196  A    between atoms: _490  and  _491
REMARK  197  A    between atoms: _490  and  _493
REMARK  198  A    between atoms: _493  and  _494
REMARK  199  A    between atoms: _494  and  _495
REMARK  200  A    between atoms: _495  and  _496
REMARK  201  A    between atoms: _505  and  _507
REMARK  202  A    between atoms: _507  and  _508
REMARK  203  A    between atoms: _507  and  _510
REMARK  204  A    between atoms: _510  and  _511
REMARK  205  A    between atoms: _514  and  _516
REMARK  206  A    between atoms: _516  and  _517
REMARK  207  A    between atoms: _520  and  _522
REMARK  208  A    between atoms: _522  and  _523
REMARK  209  A    between atoms: _522  and  _525
REMARK  210  A    between atoms: _528  and  _530
REMARK  211  A    between atoms: _530  and  _531
REMARK  212  A    between atoms: _530  and  _533
REMARK  213  A    between atoms: _533  and  _534
REMARK  214  A    between atoms: _537  and  _539
REMARK  215  A    between atoms: _539  and  _540
REMARK  216  A    between atoms: _539  and  _542
REMARK  217  A    between atoms: _542  and  _543
REMARK  218  A    between atoms: _548  and  _549
REMARK                            x       y       z     vdW  Elec       q    Type
REMARK                         _______ _______ _______ _____ _____    ______ ____
ROOT
ATOM      1  O   HOH     1      -3.730   8.859 -11.049  0.00  0.00    +0.000 OA
ENDROOT
TORSDOF 0
REMARK  Name = ../refined-set-2016/2hw2/2hw2_pocket.pdb
REMARK  218 active torsions:
REMARK  status: ('A' for Active; 'I' for Inactive)
REMARK    1  A    between atoms: _2  and  _3
REMARK    2  A    between atoms: _8  and  _10
REMARK    3  A    between atoms: _10  and  _11
REMARK    4  A    between atoms: _10  and  _13
REMARK    5  A    between atoms: _13  and  _14
REMARK    6  A    between atoms: _20  and  _22
REMARK    7  A    between atoms: _22  and  _23
REMARK    8  A    between atoms: _25  and  _27
REMARK    9  A    between atoms: _27  and  _28
REMARK   10  A    between atoms: _27  and  _30
REMARK   11  A    between atoms: _30  and  _31
REMARK   12  A    between atoms: _33  and  _35
REMARK   13  A    between atoms: _35  and  _36
REMARK   14  A    between atoms: _35  and  _38
REMARK   15  A    between atoms: _38  and  _39
REMARK   16  A    between atoms: _44  and  _46
REMARK   17  A    between atoms: _46  and  _47
REMARK   18  A    between atoms: _46  and  _49
REMARK   19  A    between atoms: _49  and  _50
REMARK   20  A    between atoms: _56  and  _58
REMARK   21  A    between atoms: _58  and  _59
REMARK   22  A    between atoms: _58  and  _61
REMARK   23  A    between atoms: _61  and  _62
REMARK   24  A    between atoms: _62  and  _63
REMARK   25  A    between atoms: _66  and  _68
REMARK   26  A    between atoms: _68  and  _69
REMARK   27  A    between atoms: _68  and  _71
REMARK   28  A    between atoms: _71  and  _72
REMARK   29  A    between atoms: _72  and  _73
REMARK   30  A    between atoms: _75  and  _77
REMARK   31  A    between atoms: _77  and  _78
REMARK   32  A    between atoms: _77  and  _80
REMARK   33  A    between atoms: _80  and  _81
REMARK   34  A    between atoms: _86  and  _87
REMARK   35  A    between atoms: _89  and  _91
REMARK   36  A    between atoms: _91  and  _92
REMARK   37  A    between atoms: _91  and  _94
REMARK   38  A    between atoms: _94  and  _95
REMARK   39  A    between atoms: _98  and  _100
REMARK   40  A    between atoms: _100  and  _101
REMARK   41  A    between atoms: _100  and  _103
REMARK   42  A    between atoms: _103  and  _104
REMARK   43  A    between atoms: _107  and  _109
REMARK   44  A    between atoms: _109  and  _110
REMARK   45  A    between atoms: _109  and  _112
REMARK   46  A    between atoms: _112  and  _113
REMARK   47  A    between atoms: _116  and  _118
REMARK   48  A    between atoms: _118  and  _119
REMARK   49  A    between atoms: _118  and  _121
REMARK   50  A    between atoms: _121  and  _122
REMARK   51  A    between atoms: _125  and  _127
REMARK   52  A    between atoms: _127  and  _128
REMARK   53  A    between atoms: _131  and  _133
REMARK   54  A    between atoms: _133  and  _134
REMARK   55  A    between atoms: _137  and  _139
REMARK   56  A    between atoms: _139  and  _140
REMARK   57  A    between atoms: _139  and  _142
REMARK   58  A    between atoms: _145  and  _147
REMARK   59  A    between atoms: _147  and  _148
REMARK   60  A    between atoms: _147  and  _150
REMARK   61  A    between atoms: _150  and  _151
REMARK   62  A    between atoms: _161  and  _163
REMARK   63  A    between atoms: _163  and  _164
REMARK   64  A    between atoms: _166  and  _168
REMARK   65  A    between atoms: _168  and  _169
REMARK   66  A    between atoms: _172  and  _174
REMARK   67  A    between atoms: _174  and  _175
REMARK   68  A    between atoms: _174  and  _177
REMARK   69  A    between atoms: _177  and  _178
REMARK   70  A    between atoms: _178  and  _179
REMARK   71  A    between atoms: _182  and  _184
REMARK   72  A    between atoms: _184  and  _185
REMARK   73  A    between atoms: _184  and  _187
REMARK   74  A    between atoms: _187  and  _188
REMARK   75  A    between atoms: _191  and  _193
REMARK   76  A    between atoms: _193  and  _194
REMARK   77  A    between atoms: _197  and  _199
REMARK   78  A    between atoms: _199  and  _200
REMARK   79  A    between atoms: _199  and  _202
REMARK   80  A    between atoms: _202  and  _203
REMARK   81  A    between atoms: _207  and  _208
REMARK   82  A    between atoms: _213  and  _215
REMARK   83  A    between atoms: _215  and  _216
REMARK   84  A    between atoms: _215  and  _218
REMARK   85  A    between atoms: _218  and  _219
REMARK   86  A    between atoms: _224  and  _226
REMARK   87  A    between atoms: _226  and  _227
REMARK   88  A    between atoms: _226  and  _229
REMARK   89  A    between atoms: _232  and  _234
REMARK   90  A    between atoms: _234  and  _235
REMARK   91  A    between atoms: _234  and  _237
REMARK   92  A    between atoms: _237  and  _238
REMARK   93  A    between atoms: _241  and  _243
REMARK   94  A    between atoms: _243  and  _244
REMARK   95  A    between atoms: _243  and  _246
REMARK   96  A    between atoms: _246  and  _247
REMARK   97  A    between atoms: _250  and  _252
REMARK   98  A    between atoms: _252  and  _253
REMARK   99  A    between atoms: _252  and  _255
REMARK  100  A    between atoms: _255  and  _256
REMARK  101  A    between atoms: _256  and  _257
REMARK  102  A    between atoms: _257  and  _258
REMARK  103  A    between atoms: _258  and  _259
REMARK  104  A    between atoms: _263  and  _265
REMARK  105  A    between atoms: _265  and  _266
REMARK  106  A    between atoms: _265  and  _268
REMARK  107  A    between atoms: _268  and  _269
REMARK  108  A    between atoms: _269  and  _270
REMARK  109  A    between atoms: _270  and  _271
REMARK  110  A    between atoms: _271  and  _272
REMARK  111  A    between atoms: _276  and  _278
REMARK  112  A    between atoms: _278  and  _279
REMARK  113  A    between atoms: _278  and  _281
REMARK  114  A    between atoms: _281  and  _282
REMARK  115  A    between atoms: _286  and  _287
REMARK  116  A    between atoms: _292  and  _294
REMARK  117  A    between atoms: _294  and  _295
REMARK  118  A    between atoms: _297  and  _299
REMARK  119  A    between atoms: _299  and  _300
REMARK  120  A    between atoms: _299  and  _302
REMARK  121  A    between atoms: _302  and  _303
REMARK  122  A    between atoms: _309  and  _310
REMARK  123  A    between atoms: _315  and  _317
REMARK  124  A    between atoms: _317  and  _318
REMARK  125  A    between atoms: _317  and  _320
REMARK  126  A    between atoms: _320  and  _321
REMARK  127  A    between atoms: _324  and  _326
REMARK  128  A    between atoms: _326  and  _327
REMARK  129  A    between atoms: _326  and  _329
REMARK  130  A    between atoms: _329  and  _330
REMARK  131  A    between atoms: _330  and  _331
REMARK  132  A    between atoms: _331  and  _332
REMARK  133  A    between atoms: _341  and  _343
REMARK  134  A    between atoms: _343  and  _344
REMARK  135  A    between atoms: _343  and  _346
REMARK  136  A    between atoms: _346  and  _347
REMARK  137  A    between atoms: _349  and  _351
REMARK  138  A    between atoms: _351  and  _352
REMARK  139  A    between atoms: _351  and  _354
REMARK  140  A    between atoms: _354  and  _355
REMARK  141  A    between atoms: _360  and  _361
REMARK  142  A    between atoms: _363  and  _365
REMARK  143  A    between atoms: _365  and  _366
REMARK  144  A    between atoms: _365  and  _368
REMARK  145  A    between atoms: _368  and  _369
REMARK  146  A    between atoms: _374  and  _376
REMARK  147  A    between atoms: _376  and  _377
REMARK  148  A    between atoms: _376  and  _379
REMARK  149  A    between atoms: _379  and  _380
REMARK  150  A    between atoms: _380  and  _381
REMARK  151  A    between atoms: _386  and  _388
REMARK  152  A    between atoms: _388  and  _389
REMARK  153  A    between atoms: _388  and  _391
REMARK  154  A    between atoms: _391  and  _392
REMARK  155  A    between atoms: _395  and  _397
REMARK  156  A    between atoms: _397  and  _398
REMARK  157  A    between atoms: _401  and  _403
REMARK  158  A    between atoms: _403  and  _404
REMARK  159  A    between atoms: _407  and  _409
REMARK  160  A    between atoms: _409  and  _410
REMARK  161  A    between atoms: _409  and  _412
REMARK  162  A    between atoms: _412  and  _413
REMARK  163  A    between atoms: _413  and  _414
REMARK  164  A    between atoms: _416  and  _418
REMARK  165  A    between atoms: _418  and  _419
REMARK  166  A    between atoms: _418  and  _421
REMARK  167  A    between atoms: _421  and  _422
REMARK  168  A    between atoms: _422  and  _423
REMARK  169  A    between atoms: _423  and  _424
REMARK  170  A    between atoms: _433  and  _435
REMARK  171  A    between atoms: _435  and  _436
REMARK  172  A    between atoms: _435  and  _438
REMARK  173  A    between atoms: _438  and  _439
REMARK  174  A    between atoms: _439  and  _440
REMARK  175  A    between atoms: _445  and  _447
REMARK  176  A    between atoms: _447  and  _448
REMARK  177  A    between atoms: _450  and  _452
REMARK  178  A    between atoms: _452  and  _453
REMARK  179  A    between atoms: _452  and  _455
REMARK  180  A    between atoms: _455  and  _456
REMARK  181  A    between atoms: _459  and  _461
REMARK  182  A    between atoms: _461  and  _462
REMARK  183  A    between atoms: _461  and  _464
REMARK  184  A    between atoms: _464  and  _465
REMARK  185  A    between atoms: _465  and  _466
REMARK  186  A    between atoms: _469  and  _471
REMARK  187  A    between atoms: _471  and  _472
REMARK  188  A    between atoms: _471  and  _474
REMARK  189  A    between atoms: _474  and  _475
REMARK  190  A    between atoms: _475  and  _476
REMARK  191  A    between atoms: _479  and  _481
REMARK  192  A    between atoms: _481  and  _482
REMARK  193  A    between atoms: _481  and  _484
REMARK  194  A    between atoms: _484  and  _485
REMARK  195  A    between atoms: _488  and  _490
REMARK  196  A    between atoms: _490  and  _491
REMARK  197  A    between atoms: _490  and  _493
REMARK  198  A    between atoms: _493  and  _494
REMARK  199  A    between atoms: _494  and  _495
REMARK  200  A    between atoms: _495  and  _496
REMARK  201  A    between atoms: _505  and  _507
REMARK  202  A    between atoms: _507  and  _508
REMARK  203  A    between atoms: _507  and  _510
REMARK  204  A    between atoms: _510  and  _511
REMARK  205  A    between atoms: _514  and  _516
REMARK  206  A    between atoms: _516  and  _517
REMARK  207  A    between atoms: _520  and  _522
REMARK  208  A    between atoms: _522  and  _523
REMARK  209  A    between atoms: _522  and  _525
REMARK  210  A    between atoms: _528  and  _530
REMARK  211  A    between atoms: _530  and  _531
REMARK  212  A    between atoms: _530  and  _533
REMARK  213  A    between atoms: _533  and  _534
REMARK  214  A    between atoms: _537  and  _539
REMARK  215  A    between atoms: _539  and  _540
REMARK  216  A    between atoms: _539  and  _542
REMARK  217  A    between atoms: _542  and  _543
REMARK  218  A    between atoms: _548  and  _549
REMARK                            x       y       z     vdW  Elec       q    Type
REMARK                         _______ _______ _______ _____ _____    ______ ____
ROOT
ATOM      1  O   HOH     1     -18.883   5.753 -28.333  0.00  0.00    +0.000 OA
ENDROOT
TORSDOF 0
REMARK  Name = ../refined-set-2016/2hw2/2hw2_pocket.pdb
REMARK  218 active torsions:
REMARK  status: ('A' for Active; 'I' for Inactive)
REMARK    1  A    between atoms: _2  and  _3
REMARK    2  A    between atoms: _8  and  _10
REMARK    3  A    between atoms: _10  and  _11
REMARK    4  A    between atoms: _10  and  _13
REMARK    5  A    between atoms: _13  and  _14
REMARK    6  A    between atoms: _20  and  _22
REMARK    7  A    between atoms: _22  and  _23
REMARK    8  A    between atoms: _25  and  _27
REMARK    9  A    between atoms: _27  and  _28
REMARK   10  A    between atoms: _27  and  _30
REMARK   11  A    between atoms: _30  and  _31
REMARK   12  A    between atoms: _33  and  _35
REMARK   13  A    between atoms: _35  and  _36
REMARK   14  A    between atoms: _35  and  _38
REMARK   15  A    between atoms: _38  and  _39
REMARK   16  A    between atoms: _44  and  _46
REMARK   17  A    between atoms: _46  and  _47
REMARK   18  A    between atoms: _46  and  _49
REMARK   19  A    between atoms: _49  and  _50
REMARK   20  A    between atoms: _56  and  _58
REMARK   21  A    between atoms: _58  and  _59
REMARK   22  A    between atoms: _58  and  _61
REMARK   23  A    between atoms: _61  and  _62
REMARK   24  A    between atoms: _62  and  _63
REMARK   25  A    between atoms: _66  and  _68
REMARK   26  A    between atoms: _68  and  _69
REMARK   27  A    between atoms: _68  and  _71
REMARK   28  A    between atoms: _71  and  _72
REMARK   29  A    between atoms: _72  and  _73
REMARK   30  A    between atoms: _75  and  _77
REMARK   31  A    between atoms: _77  and  _78
REMARK   32  A    between atoms: _77  and  _80
REMARK   33  A    between atoms: _80  and  _81
REMARK   34  A    between atoms: _86  and  _87
REMARK   35  A    between atoms: _89  and  _91
REMARK   36  A    between atoms: _91  and  _92
REMARK   37  A    between atoms: _91  and  _94
REMARK   38  A    between atoms: _94  and  _95
REMARK   39  A    between atoms: _98  and  _100
REMARK   40  A    between atoms: _100  and  _101
REMARK   41  A    between atoms: _100  and  _103
REMARK   42  A    between atoms: _103  and  _104
REMARK   43  A    between atoms: _107  and  _109
REMARK   44  A    between atoms: _109  and  _110
REMARK   45  A    between atoms: _109  and  _112
REMARK   46  A    between atoms: _112  and  _113
REMARK   47  A    between atoms: _116  and  _118
REMARK   48  A    between atoms: _118  and  _119
REMARK   49  A    between atoms: _118  and  _121
REMARK   50  A    between atoms: _121  and  _122
REMARK   51  A    between atoms: _125  and  _127
REMARK   52  A    between atoms: _127  and  _128
REMARK   53  A    between atoms: _131  and  _133
REMARK   54  A    between atoms: _133  and  _134
REMARK   55  A    between atoms: _137  and  _139
REMARK   56  A    between atoms: _139  and  _140
REMARK   57  A    between atoms: _139  and  _142
REMARK   58  A    between atoms: _145  and  _147
REMARK   59  A    between atoms: _147  and  _148
REMARK   60  A    between atoms: _147  and  _150
REMARK   61  A    between atoms: _150  and  _151
REMARK   62  A    between atoms: _161  and  _163
REMARK   63  A    between atoms: _163  and  _164
REMARK   64  A    between atoms: _166  and  _168
REMARK   65  A    between atoms: _168  and  _169
REMARK   66  A    between atoms: _172  and  _174
REMARK   67  A    between atoms: _174  and  _175
REMARK   68  A    between atoms: _174  and  _177
REMARK   69  A    between atoms: _177  and  _178
REMARK   70  A    between atoms: _178  and  _179
REMARK   71  A    between atoms: _182  and  _184
REMARK   72  A    between atoms: _184  and  _185
REMARK   73  A    between atoms: _184  and  _187
REMARK   74  A    between atoms: _187  and  _188
REMARK   75  A    between atoms: _191  and  _193
REMARK   76  A    between atoms: _193  and  _194
REMARK   77  A    between atoms: _197  and  _199
REMARK   78  A    between atoms: _199  and  _200
REMARK   79  A    between atoms: _199  and  _202
REMARK   80  A    between atoms: _202  and  _203
REMARK   81  A    between atoms: _207  and  _208
REMARK   82  A    between atoms: _213  and  _215
REMARK   83  A    between atoms: _215  and  _216
REMARK   84  A    between atoms: _215  and  _218
REMARK   85  A    between atoms: _218  and  _219
REMARK   86  A    between atoms: _224  and  _226
REMARK   87  A    between atoms: _226  and  _227
REMARK   88  A    between atoms: _226  and  _229
REMARK   89  A    between atoms: _232  and  _234
REMARK   90  A    between atoms: _234  and  _235
REMARK   91  A    between atoms: _234  and  _237
REMARK   92  A    between atoms: _237  and  _238
REMARK   93  A    between atoms: _241  and  _243
REMARK   94  A    between atoms: _243  and  _244
REMARK   95  A    between atoms: _243  and  _246
REMARK   96  A    between atoms: _246  and  _247
REMARK   97  A    between atoms: _250  and  _252
REMARK   98  A    between atoms: _252  and  _253
REMARK   99  A    between atoms: _252  and  _255
REMARK  100  A    between atoms: _255  and  _256
REMARK  101  A    between atoms: _256  and  _257
REMARK  102  A    between atoms: _257  and  _258
REMARK  103  A    between atoms: _258  and  _259
REMARK  104  A    between atoms: _263  and  _265
REMARK  105  A    between atoms: _265  and  _266
REMARK  106  A    between atoms: _265  and  _268
REMARK  107  A    between atoms: _268  and  _269
REMARK  108  A    between atoms: _269  and  _270
REMARK  109  A    between atoms: _270  and  _271
REMARK  110  A    between atoms: _271  and  _272
REMARK  111  A    between atoms: _276  and  _278
REMARK  112  A    between atoms: _278  and  _279
REMARK  113  A    between atoms: _278  and  _281
REMARK  114  A    between atoms: _281  and  _282
REMARK  115  A    between atoms: _286  and  _287
REMARK  116  A    between atoms: _292  and  _294
REMARK  117  A    between atoms: _294  and  _295
REMARK  118  A    between atoms: _297  and  _299
REMARK  119  A    between atoms: _299  and  _300
REMARK  120  A    between atoms: _299  and  _302
REMARK  121  A    between atoms: _302  and  _303
REMARK  122  A    between atoms: _309  and  _310
REMARK  123  A    between atoms: _315  and  _317
REMARK  124  A    between atoms: _317  and  _318
REMARK  125  A    between atoms: _317  and  _320
REMARK  126  A    between atoms: _320  and  _321
REMARK  127  A    between atoms: _324  and  _326
REMARK  128  A    between atoms: _326  and  _327
REMARK  129  A    between atoms: _326  and  _329
REMARK  130  A    between atoms: _329  and  _330
REMARK  131  A    between atoms: _330  and  _331
REMARK  132  A    between atoms: _331  and  _332
REMARK  133  A    between atoms: _341  and  _343
REMARK  134  A    between atoms: _343  and  _344
REMARK  135  A    between atoms: _343  and  _346
REMARK  136  A    between atoms: _346  and  _347
REMARK  137  A    between atoms: _349  and  _351
REMARK  138  A    between atoms: _351  and  _352
REMARK  139  A    between atoms: _351  and  _354
REMARK  140  A    between atoms: _354  and  _355
REMARK  141  A    between atoms: _360  and  _361
REMARK  142  A    between atoms: _363  and  _365
REMARK  143  A    between atoms: _365  and  _366
REMARK  144  A    between atoms: _365  and  _368
REMARK  145  A    between atoms: _368  and  _369
REMARK  146  A    between atoms: _374  and  _376
REMARK  147  A    between atoms: _376  and  _377
REMARK  148  A    between atoms: _376  and  _379
REMARK  149  A    between atoms: _379  and  _380
REMARK  150  A    between atoms: _380  and  _381
REMARK  151  A    between atoms: _386  and  _388
REMARK  152  A    between atoms: _388  and  _389
REMARK  153  A    between atoms: _388  and  _391
REMARK  154  A    between atoms: _391  and  _392
REMARK  155  A    between atoms: _395  and  _397
REMARK  156  A    between atoms: _397  and  _398
REMARK  157  A    between atoms: _401  and  _403
REMARK  158  A    between atoms: _403  and  _404
REMARK  159  A    between atoms: _407  and  _409
REMARK  160  A    between atoms: _409  and  _410
REMARK  161  A    between atoms: _409  and  _412
REMARK  162  A    between atoms: _412  and  _413
REMARK  163  A    between atoms: _413  and  _414
REMARK  164  A    between atoms: _416  and  _418
REMARK  165  A    between atoms: _418  and  _419
REMARK  166  A    between atoms: _418  and  _421
REMARK  167  A    between atoms: _421  and  _422
REMARK  168  A    between atoms: _422  and  _423
REMARK  169  A    between atoms: _423  and  _424
REMARK  170  A    between atoms: _433  and  _435
REMARK  171  A    between atoms: _435  and  _436
REMARK  172  A    between atoms: _435  and  _438
REMARK  173  A    between atoms: _438  and  _439
REMARK  174  A    between atoms: _439  and  _440
REMARK  175  A    between atoms: _445  and  _447
REMARK  176  A    between atoms: _447  and  _448
REMARK  177  A    between atoms: _450  and  _452
REMARK  178  A    between atoms: _452  and  _453
REMARK  179  A    between atoms: _452  and  _455
REMARK  180  A    between atoms: _455  and  _456
REMARK  181  A    between atoms: _459  and  _461
REMARK  182  A    between atoms: _461  and  _462
REMARK  183  A    between atoms: _461  and  _464
REMARK  184  A    between atoms: _464  and  _465
REMARK  185  A    between atoms: _465  and  _466
REMARK  186  A    between atoms: _469  and  _471
REMARK  187  A    between atoms: _471  and  _472
REMARK  188  A    between atoms: _471  and  _474
REMARK  189  A    between atoms: _474  and  _475
REMARK  190  A    between atoms: _475  and  _476
REMARK  191  A    between atoms: _479  and  _481
REMARK  192  A    between atoms: _481  and  _482
REMARK  193  A    between atoms: _481  and  _484
REMARK  194  A    between atoms: _484  and  _485
REMARK  195  A    between atoms: _488  and  _490
REMARK  196  A    between atoms: _490  and  _491
REMARK  197  A    between atoms: _490  and  _493
REMARK  198  A    between atoms: _493  and  _494
REMARK  199  A    between atoms: _494  and  _495
REMARK  200  A    between atoms: _495  and  _496
REMARK  201  A    between atoms: _505  and  _507
REMARK  202  A    between atoms: _507  and  _508
REMARK  203  A    between atoms: _507  and  _510
REMARK  204  A    between atoms: _510  and  _511
REMARK  205  A    between atoms: _514  and  _516
REMARK  206  A    between atoms: _516  and  _517
REMARK  207  A    between atoms: _520  and  _522
REMARK  208  A    between atoms: _522  and  _523
REMARK  209  A    between atoms: _522  and  _525
REMARK  210  A    between atoms: _528  and  _530
REMARK  211  A    between atoms: _530  and  _531
REMARK  212  A    between atoms: _530  and  _533
REMARK  213  A    between atoms: _533  and  _534
REMARK  214  A    between atoms: _537  and  _539
REMARK  215  A    between atoms: _539  and  _540
REMARK  216  A    between atoms: _539  and  _542
REMARK  217  A    between atoms: _542  and  _543
REMARK  218  A    between atoms: _548  and  _549
REMARK                            x       y       z     vdW  Elec       q    Type
REMARK                         _______ _______ _______ _____ _____    ______ ____
ROOT
ATOM      1  O   HOH     1     -21.185  11.473 -10.733  0.00  0.00    +0.000 OA
ENDROOT
TORSDOF 0
REMARK  Name = ../refined-set-2016/2hw2/2hw2_pocket.pdb
REMARK  218 active torsions:
REMARK  status: ('A' for Active; 'I' for Inactive)
REMARK    1  A    between atoms: _2  and  _3
REMARK    2  A    between atoms: _8  and  _10
REMARK    3  A    between atoms: _10  and  _11
REMARK    4  A    between atoms: _10  and  _13
REMARK    5  A    between atoms: _13  and  _14
REMARK    6  A    between atoms: _20  and  _22
REMARK    7  A    between atoms: _22  and  _23
REMARK    8  A    between atoms: _25  and  _27
REMARK    9  A    between atoms: _27  and  _28
REMARK   10  A    between atoms: _27  and  _30
REMARK   11  A    between atoms: _30  and  _31
REMARK   12  A    between atoms: _33  and  _35
REMARK   13  A    between atoms: _35  and  _36
REMARK   14  A    between atoms: _35  and  _38
REMARK   15  A    between atoms: _38  and  _39
REMARK   16  A    between atoms: _44  and  _46
REMARK   17  A    between atoms: _46  and  _47
REMARK   18  A    between atoms: _46  and  _49
REMARK   19  A    between atoms: _49  and  _50
REMARK   20  A    between atoms: _56  and  _58
REMARK   21  A    between atoms: _58  and  _59
REMARK   22  A    between atoms: _58  and  _61
REMARK   23  A    between atoms: _61  and  _62
REMARK   24  A    between atoms: _62  and  _63
REMARK   25  A    between atoms: _66  and  _68
REMARK   26  A    between atoms: _68  and  _69
REMARK   27  A    between atoms: _68  and  _71
REMARK   28  A    between atoms: _71  and  _72
REMARK   29  A    between atoms: _72  and  _73
REMARK   30  A    between atoms: _75  and  _77
REMARK   31  A    between atoms: _77  and  _78
REMARK   32  A    between atoms: _77  and  _80
REMARK   33  A    between atoms: _80  and  _81
REMARK   34  A    between atoms: _86  and  _87
REMARK   35  A    between atoms: _89  and  _91
REMARK   36  A    between atoms: _91  and  _92
REMARK   37  A    between atoms: _91  and  _94
REMARK   38  A    between atoms: _94  and  _95
REMARK   39  A    between atoms: _98  and  _100
REMARK   40  A    between atoms: _100  and  _101
REMARK   41  A    between atoms: _100  and  _103
REMARK   42  A    between atoms: _103  and  _104
REMARK   43  A    between atoms: _107  and  _109
REMARK   44  A    between atoms: _109  and  _110
REMARK   45  A    between atoms: _109  and  _112
REMARK   46  A    between atoms: _112  and  _113
REMARK   47  A    between atoms: _116  and  _118
REMARK   48  A    between atoms: _118  and  _119
REMARK   49  A    between atoms: _118  and  _121
REMARK   50  A    between atoms: _121  and  _122
REMARK   51  A    between atoms: _125  and  _127
REMARK   52  A    between atoms: _127  and  _128
REMARK   53  A    between atoms: _131  and  _133
REMARK   54  A    between atoms: _133  and  _134
REMARK   55  A    between atoms: _137  and  _139
REMARK   56  A    between atoms: _139  and  _140
REMARK   57  A    between atoms: _139  and  _142
REMARK   58  A    between atoms: _145  and  _147
REMARK   59  A    between atoms: _147  and  _148
REMARK   60  A    between atoms: _147  and  _150
REMARK   61  A    between atoms: _150  and  _151
REMARK   62  A    between atoms: _161  and  _163
REMARK   63  A    between atoms: _163  and  _164
REMARK   64  A    between atoms: _166  and  _168
REMARK   65  A    between atoms: _168  and  _169
REMARK   66  A    between atoms: _172  and  _174
REMARK   67  A    between atoms: _174  and  _175
REMARK   68  A    between atoms: _174  and  _177
REMARK   69  A    between atoms: _177  and  _178
REMARK   70  A    between atoms: _178  and  _179
REMARK   71  A    between atoms: _182  and  _184
REMARK   72  A    between atoms: _184  and  _185
REMARK   73  A    between atoms: _184  and  _187
REMARK   74  A    between atoms: _187  and  _188
REMARK   75  A    between atoms: _191  and  _193
REMARK   76  A    between atoms: _193  and  _194
REMARK   77  A    between atoms: _197  and  _199
REMARK   78  A    between atoms: _199  and  _200
REMARK   79  A    between atoms: _199  and  _202
REMARK   80  A    between atoms: _202  and  _203
REMARK   81  A    between atoms: _207  and  _208
REMARK   82  A    between atoms: _213  and  _215
REMARK   83  A    between atoms: _215  and  _216
REMARK   84  A    between atoms: _215  and  _218
REMARK   85  A    between atoms: _218  and  _219
REMARK   86  A    between atoms: _224  and  _226
REMARK   87  A    between atoms: _226  and  _227
REMARK   88  A    between atoms: _226  and  _229
REMARK   89  A    between atoms: _232  and  _234
REMARK   90  A    between atoms: _234  and  _235
REMARK   91  A    between atoms: _234  and  _237
REMARK   92  A    between atoms: _237  and  _238
REMARK   93  A    between atoms: _241  and  _243
REMARK   94  A    between atoms: _243  and  _244
REMARK   95  A    between atoms: _243  and  _246
REMARK   96  A    between atoms: _246  and  _247
REMARK   97  A    between atoms: _250  and  _252
REMARK   98  A    between atoms: _252  and  _253
REMARK   99  A    between atoms: _252  and  _255
REMARK  100  A    between atoms: _255  and  _256
REMARK  101  A    between atoms: _256  and  _257
REMARK  102  A    between atoms: _257  and  _258
REMARK  103  A    between atoms: _258  and  _259
REMARK  104  A    between atoms: _263  and  _265
REMARK  105  A    between atoms: _265  and  _266
REMARK  106  A    between atoms: _265  and  _268
REMARK  107  A    between atoms: _268  and  _269
REMARK  108  A    between atoms: _269  and  _270
REMARK  109  A    between atoms: _270  and  _271
REMARK  110  A    between atoms: _271  and  _272
REMARK  111  A    between atoms: _276  and  _278
REMARK  112  A    between atoms: _278  and  _279
REMARK  113  A    between atoms: _278  and  _281
REMARK  114  A    between atoms: _281  and  _282
REMARK  115  A    between atoms: _286  and  _287
REMARK  116  A    between atoms: _292  and  _294
REMARK  117  A    between atoms: _294  and  _295
REMARK  118  A    between atoms: _297  and  _299
REMARK  119  A    between atoms: _299  and  _300
REMARK  120  A    between atoms: _299  and  _302
REMARK  121  A    between atoms: _302  and  _303
REMARK  122  A    between atoms: _309  and  _310
REMARK  123  A    between atoms: _315  and  _317
REMARK  124  A    between atoms: _317  and  _318
REMARK  125  A    between atoms: _317  and  _320
REMARK  126  A    between atoms: _320  and  _321
REMARK  127  A    between atoms: _324  and  _326
REMARK  128  A    between atoms: _326  and  _327
REMARK  129  A    between atoms: _326  and  _329
REMARK  130  A    between atoms: _329  and  _330
REMARK  131  A    between atoms: _330  and  _331
REMARK  132  A    between atoms: _331  and  _332
REMARK  133  A    between atoms: _341  and  _343
REMARK  134  A    between atoms: _343  and  _344
REMARK  135  A    between atoms: _343  and  _346
REMARK  136  A    between atoms: _346  and  _347
REMARK  137  A    between atoms: _349  and  _351
REMARK  138  A    between atoms: _351  and  _352
REMARK  139  A    between atoms: _351  and  _354
REMARK  140  A    between atoms: _354  and  _355
REMARK  141  A    between atoms: _360  and  _361
REMARK  142  A    between atoms: _363  and  _365
REMARK  143  A    between atoms: _365  and  _366
REMARK  144  A    between atoms: _365  and  _368
REMARK  145  A    between atoms: _368  and  _369
REMARK  146  A    between atoms: _374  and  _376
REMARK  147  A    between atoms: _376  and  _377
REMARK  148  A    between atoms: _376  and  _379
REMARK  149  A    between atoms: _379  and  _380
REMARK  150  A    between atoms: _380  and  _381
REMARK  151  A    between atoms: _386  and  _388
REMARK  152  A    between atoms: _388  and  _389
REMARK  153  A    between atoms: _388  and  _391
REMARK  154  A    between atoms: _391  and  _392
REMARK  155  A    between atoms: _395  and  _397
REMARK  156  A    between atoms: _397  and  _398
REMARK  157  A    between atoms: _401  and  _403
REMARK  158  A    between atoms: _403  and  _404
REMARK  159  A    between atoms: _407  and  _409
REMARK  160  A    between atoms: _409  and  _410
REMARK  161  A    between atoms: _409  and  _412
REMARK  162  A    between atoms: _412  and  _413
REMARK  163  A    between atoms: _413  and  _414
REMARK  164  A    between atoms: _416  and  _418
REMARK  165  A    between atoms: _418  and  _419
REMARK  166  A    between atoms: _418  and  _421
REMARK  167  A    between atoms: _421  and  _422
REMARK  168  A    between atoms: _422  and  _423
REMARK  169  A    between atoms: _423  and  _424
REMARK  170  A    between atoms: _433  and  _435
REMARK  171  A    between atoms: _435  and  _436
REMARK  172  A    between atoms: _435  and  _438
REMARK  173  A    between atoms: _438  and  _439
REMARK  174  A    between atoms: _439  and  _440
REMARK  175  A    between atoms: _445  and  _447
REMARK  176  A    between atoms: _447  and  _448
REMARK  177  A    between atoms: _450  and  _452
REMARK  178  A    between atoms: _452  and  _453
REMARK  179  A    between atoms: _452  and  _455
REMARK  180  A    between atoms: _455  and  _456
REMARK  181  A    between atoms: _459  and  _461
REMARK  182  A    between atoms: _461  and  _462
REMARK  183  A    between atoms: _461  and  _464
REMARK  184  A    between atoms: _464  and  _465
REMARK  185  A    between atoms: _465  and  _466
REMARK  186  A    between atoms: _469  and  _471
REMARK  187  A    between atoms: _471  and  _472
REMARK  188  A    between atoms: _471  and  _474
REMARK  189  A    between atoms: _474  and  _475
REMARK  190  A    between atoms: _475  and  _476
REMARK  191  A    between atoms: _479  and  _481
REMARK  192  A    between atoms: _481  and  _482
REMARK  193  A    between atoms: _481  and  _484
REMARK  194  A    between atoms: _484  and  _485
REMARK  195  A    between atoms: _488  and  _490
REMARK  196  A    between atoms: _490  and  _491
REMARK  197  A    between atoms: _490  and  _493
REMARK  198  A    between atoms: _493  and  _494
REMARK  199  A    between atoms: _494  and  _495
REMARK  200  A    between atoms: _495  and  _496
REMARK  201  A    between atoms: _505  and  _507
REMARK  202  A    between atoms: _507  and  _508
REMARK  203  A    between atoms: _507  and  _510
REMARK  204  A    between atoms: _510  and  _511
REMARK  205  A    between atoms: _514  and  _516
REMARK  206  A    between atoms: _516  and  _517
REMARK  207  A    between atoms: _520  and  _522
REMARK  208  A    between atoms: _522  and  _523
REMARK  209  A    between atoms: _522  and  _525
REMARK  210  A    between atoms: _528  and  _530
REMARK  211  A    between atoms: _530  and  _531
REMARK  212  A    between atoms: _530  and  _533
REMARK  213  A    between atoms: _533  and  _534
REMARK  214  A    between atoms: _537  and  _539
REMARK  215  A    between atoms: _539  and  _540
REMARK  216  A    between atoms: _539  and  _542
REMARK  217  A    between atoms: _542  and  _543
REMARK  218  A    between atoms: _548  and  _549
REMARK                            x       y       z     vdW  Elec       q    Type
REMARK                         _______ _______ _______ _____ _____    ______ ____
ROOT
ATOM      1  O   HOH     1      -5.757   7.879 -12.498  0.00  0.00    +0.000 OA
ENDROOT
TORSDOF 0
REMARK  Name = ../refined-set-2016/2hw2/2hw2_pocket.pdb
REMARK  218 active torsions:
REMARK  status: ('A' for Active; 'I' for Inactive)
REMARK    1  A    between atoms: _2  and  _3
REMARK    2  A    between atoms: _8  and  _10
REMARK    3  A    between atoms: _10  and  _11
REMARK    4  A    between atoms: _10  and  _13
REMARK    5  A    between atoms: _13  and  _14
REMARK    6  A    between atoms: _20  and  _22
REMARK    7  A    between atoms: _22  and  _23
REMARK    8  A    between atoms: _25  and  _27
REMARK    9  A    between atoms: _27  and  _28
REMARK   10  A    between atoms: _27  and  _30
REMARK   11  A    between atoms: _30  and  _31
REMARK   12  A    between atoms: _33  and  _35
REMARK   13  A    between atoms: _35  and  _36
REMARK   14  A    between atoms: _35  and  _38
REMARK   15  A    between atoms: _38  and  _39
REMARK   16  A    between atoms: _44  and  _46
REMARK   17  A    between atoms: _46  and  _47
REMARK   18  A    between atoms: _46  and  _49
REMARK   19  A    between atoms: _49  and  _50
REMARK   20  A    between atoms: _56  and  _58
REMARK   21  A    between atoms: _58  and  _59
REMARK   22  A    between atoms: _58  and  _61
REMARK   23  A    between atoms: _61  and  _62
REMARK   24  A    between atoms: _62  and  _63
REMARK   25  A    between atoms: _66  and  _68
REMARK   26  A    between atoms: _68  and  _69
REMARK   27  A    between atoms: _68  and  _71
REMARK   28  A    between atoms: _71  and  _72
REMARK   29  A    between atoms: _72  and  _73
REMARK   30  A    between atoms: _75  and  _77
REMARK   31  A    between atoms: _77  and  _78
REMARK   32  A    between atoms: _77  and  _80
REMARK   33  A    between atoms: _80  and  _81
REMARK   34  A    between atoms: _86  and  _87
REMARK   35  A    between atoms: _89  and  _91
REMARK   36  A    between atoms: _91  and  _92
REMARK   37  A    between atoms: _91  and  _94
REMARK   38  A    between atoms: _94  and  _95
REMARK   39  A    between atoms: _98  and  _100
REMARK   40  A    between atoms: _100  and  _101
REMARK   41  A    between atoms: _100  and  _103
REMARK   42  A    between atoms: _103  and  _104
REMARK   43  A    between atoms: _107  and  _109
REMARK   44  A    between atoms: _109  and  _110
REMARK   45  A    between atoms: _109  and  _112
REMARK   46  A    between atoms: _112  and  _113
REMARK   47  A    between atoms: _116  and  _118
REMARK   48  A    between atoms: _118  and  _119
REMARK   49  A    between atoms: _118  and  _121
REMARK   50  A    between atoms: _121  and  _122
REMARK   51  A    between atoms: _125  and  _127
REMARK   52  A    between atoms: _127  and  _128
REMARK   53  A    between atoms: _131  and  _133
REMARK   54  A    between atoms: _133  and  _134
REMARK   55  A    between atoms: _137  and  _139
REMARK   56  A    between atoms: _139  and  _140
REMARK   57  A    between atoms: _139  and  _142
REMARK   58  A    between atoms: _145  and  _147
REMARK   59  A    between atoms: _147  and  _148
REMARK   60  A    between atoms: _147  and  _150
REMARK   61  A    between atoms: _150  and  _151
REMARK   62  A    between atoms: _161  and  _163
REMARK   63  A    between atoms: _163  and  _164
REMARK   64  A    between atoms: _166  and  _168
REMARK   65  A    between atoms: _168  and  _169
REMARK   66  A    between atoms: _172  and  _174
REMARK   67  A    between atoms: _174  and  _175
REMARK   68  A    between atoms: _174  and  _177
REMARK   69  A    between atoms: _177  and  _178
REMARK   70  A    between atoms: _178  and  _179
REMARK   71  A    between atoms: _182  and  _184
REMARK   72  A    between atoms: _184  and  _185
REMARK   73  A    between atoms: _184  and  _187
REMARK   74  A    between atoms: _187  and  _188
REMARK   75  A    between atoms: _191  and  _193
REMARK   76  A    between atoms: _193  and  _194
REMARK   77  A    between atoms: _197  and  _199
REMARK   78  A    between atoms: _199  and  _200
REMARK   79  A    between atoms: _199  and  _202
REMARK   80  A    between atoms: _202  and  _203
REMARK   81  A    between atoms: _207  and  _208
REMARK   82  A    between atoms: _213  and  _215
REMARK   83  A    between atoms: _215  and  _216
REMARK   84  A    between atoms: _215  and  _218
REMARK   85  A    between atoms: _218  and  _219
REMARK   86  A    between atoms: _224  and  _226
REMARK   87  A    between atoms: _226  and  _227
REMARK   88  A    between atoms: _226  and  _229
REMARK   89  A    between atoms: _232  and  _234
REMARK   90  A    between atoms: _234  and  _235
REMARK   91  A    between atoms: _234  and  _237
REMARK   92  A    between atoms: _237  and  _238
REMARK   93  A    between atoms: _241  and  _243
REMARK   94  A    between atoms: _243  and  _244
REMARK   95  A    between atoms: _243  and  _246
REMARK   96  A    between atoms: _246  and  _247
REMARK   97  A    between atoms: _250  and  _252
REMARK   98  A    between atoms: _252  and  _253
REMARK   99  A    between atoms: _252  and  _255
REMARK  100  A    between atoms: _255  and  _256
REMARK  101  A    between atoms: _256  and  _257
REMARK  102  A    between atoms: _257  and  _258
REMARK  103  A    between atoms: _258  and  _259
REMARK  104  A    between atoms: _263  and  _265
REMARK  105  A    between atoms: _265  and  _266
REMARK  106  A    between atoms: _265  and  _268
REMARK  107  A    between atoms: _268  and  _269
REMARK  108  A    between atoms: _269  and  _270
REMARK  109  A    between atoms: _270  and  _271
REMARK  110  A    between atoms: _271  and  _272
REMARK  111  A    between atoms: _276  and  _278
REMARK  112  A    between atoms: _278  and  _279
REMARK  113  A    between atoms: _278  and  _281
REMARK  114  A    between atoms: _281  and  _282
REMARK  115  A    between atoms: _286  and  _287
REMARK  116  A    between atoms: _292  and  _294
REMARK  117  A    between atoms: _294  and  _295
REMARK  118  A    between atoms: _297  and  _299
REMARK  119  A    between atoms: _299  and  _300
REMARK  120  A    between atoms: _299  and  _302
REMARK  121  A    between atoms: _302  and  _303
REMARK  122  A    between atoms: _309  and  _310
REMARK  123  A    between atoms: _315  and  _317
REMARK  124  A    between atoms: _317  and  _318
REMARK  125  A    between atoms: _317  and  _320
REMARK  126  A    between atoms: _320  and  _321
REMARK  127  A    between atoms: _324  and  _326
REMARK  128  A    between atoms: _326  and  _327
REMARK  129  A    between atoms: _326  and  _329
REMARK  130  A    between atoms: _329  and  _330
REMARK  131  A    between atoms: _330  and  _331
REMARK  132  A    between atoms: _331  and  _332
REMARK  133  A    between atoms: _341  and  _343
REMARK  134  A    between atoms: _343  and  _344
REMARK  135  A    between atoms: _343  and  _346
REMARK  136  A    between atoms: _346  and  _347
REMARK  137  A    between atoms: _349  and  _351
REMARK  138  A    between atoms: _351  and  _352
REMARK  139  A    between atoms: _351  and  _354
REMARK  140  A    between atoms: _354  and  _355
REMARK  141  A    between atoms: _360  and  _361
REMARK  142  A    between atoms: _363  and  _365
REMARK  143  A    between atoms: _365  and  _366
REMARK  144  A    between atoms: _365  and  _368
REMARK  145  A    between atoms: _368  and  _369
REMARK  146  A    between atoms: _374  and  _376
REMARK  147  A    between atoms: _376  and  _377
REMARK  148  A    between atoms: _376  and  _379
REMARK  149  A    between atoms: _379  and  _380
REMARK  150  A    between atoms: _380  and  _381
REMARK  151  A    between atoms: _386  and  _388
REMARK  152  A    between atoms: _388  and  _389
REMARK  153  A    between atoms: _388  and  _391
REMARK  154  A    between atoms: _391  and  _392
REMARK  155  A    between atoms: _395  and  _397
REMARK  156  A    between atoms: _397  and  _398
REMARK  157  A    between atoms: _401  and  _403
REMARK  158  A    between atoms: _403  and  _404
REMARK  159  A    between atoms: _407  and  _409
REMARK  160  A    between atoms: _409  and  _410
REMARK  161  A    between atoms: _409  and  _412
REMARK  162  A    between atoms: _412  and  _413
REMARK  163  A    between atoms: _413  and  _414
REMARK  164  A    between atoms: _416  and  _418
REMARK  165  A    between atoms: _418  and  _419
REMARK  166  A    between atoms: _418  and  _421
REMARK  167  A    between atoms: _421  and  _422
REMARK  168  A    between atoms: _422  and  _423
REMARK  169  A    between atoms: _423  and  _424
REMARK  170  A    between atoms: _433  and  _435
REMARK  171  A    between atoms: _435  and  _436
REMARK  172  A    between atoms: _435  and  _438
REMARK  173  A    between atoms: _438  and  _439
REMARK  174  A    between atoms: _439  and  _440
REMARK  175  A    between atoms: _445  and  _447
REMARK  176  A    between atoms: _447  and  _448
REMARK  177  A    between atoms: _450  and  _452
REMARK  178  A    between atoms: _452  and  _453
REMARK  179  A    between atoms: _452  and  _455
REMARK  180  A    between atoms: _455  and  _456
REMARK  181  A    between atoms: _459  and  _461
REMARK  182  A    between atoms: _461  and  _462
REMARK  183  A    between atoms: _461  and  _464
REMARK  184  A    between atoms: _464  and  _465
REMARK  185  A    between atoms: _465  and  _466
REMARK  186  A    between atoms: _469  and  _471
REMARK  187  A    between atoms: _471  and  _472
REMARK  188  A    between atoms: _471  and  _474
REMARK  189  A    between atoms: _474  and  _475
REMARK  190  A    between atoms: _475  and  _476
REMARK  191  A    between atoms: _479  and  _481
REMARK  192  A    between atoms: _481  and  _482
REMARK  193  A    between atoms: _481  and  _484
REMARK  194  A    between atoms: _484  and  _485
REMARK  195  A    between atoms: _488  and  _490
REMARK  196  A    between atoms: _490  and  _491
REMARK  197  A    between atoms: _490  and  _493
REMARK  198  A    between atoms: _493  and  _494
REMARK  199  A    between atoms: _494  and  _495
REMARK  200  A    between atoms: _495  and  _496
REMARK  201  A    between atoms: _505  and  _507
REMARK  202  A    between atoms: _507  and  _508
REMARK  203  A    between atoms: _507  and  _510
REMARK  204  A    between atoms: _510  and  _511
REMARK  205  A    between atoms: _514  and  _516
REMARK  206  A    between atoms: _516  and  _517
REMARK  207  A    between atoms: _520  and  _522
REMARK  208  A    between atoms: _522  and  _523
REMARK  209  A    between atoms: _522  and  _525
REMARK  210  A    between atoms: _528  and  _530
REMARK  211  A    between atoms: _530  and  _531
REMARK  212  A    between atoms: _530  and  _533
REMARK  213  A    between atoms: _533  and  _534
REMARK  214  A    between atoms: _537  and  _539
REMARK  215  A    between atoms: _539  and  _540
REMARK  216  A    between atoms: _539  and  _542
REMARK  217  A    between atoms: _542  and  _543
REMARK  218  A    between atoms: _548  and  _549
REMARK                            x       y       z     vdW  Elec       q    Type
REMARK                         _______ _______ _______ _____ _____    ______ ____
ROOT
ATOM      1  O   HOH     1      -7.671   9.151 -14.774  0.00  0.00    +0.000 OA
ENDROOT
TORSDOF 0
REMARK  Name = ../refined-set-2016/2hw2/2hw2_pocket.pdb
REMARK  218 active torsions:
REMARK  status: ('A' for Active; 'I' for Inactive)
REMARK    1  A    between atoms: _2  and  _3
REMARK    2  A    between atoms: _8  and  _10
REMARK    3  A    between atoms: _10  and  _11
REMARK    4  A    between atoms: _10  and  _13
REMARK    5  A    between atoms: _13  and  _14
REMARK    6  A    between atoms: _20  and  _22
REMARK    7  A    between atoms: _22  and  _23
REMARK    8  A    between atoms: _25  and  _27
REMARK    9  A    between atoms: _27  and  _28
REMARK   10  A    between atoms: _27  and  _30
REMARK   11  A    between atoms: _30  and  _31
REMARK   12  A    between atoms: _33  and  _35
REMARK   13  A    between atoms: _35  and  _36
REMARK   14  A    between atoms: _35  and  _38
REMARK   15  A    between atoms: _38  and  _39
REMARK   16  A    between atoms: _44  and  _46
REMARK   17  A    between atoms: _46  and  _47
REMARK   18  A    between atoms: _46  and  _49
REMARK   19  A    between atoms: _49  and  _50
REMARK   20  A    between atoms: _56  and  _58
REMARK   21  A    between atoms: _58  and  _59
REMARK   22  A    between atoms: _58  and  _61
REMARK   23  A    between atoms: _61  and  _62
REMARK   24  A    between atoms: _62  and  _63
REMARK   25  A    between atoms: _66  and  _68
REMARK   26  A    between atoms: _68  and  _69
REMARK   27  A    between atoms: _68  and  _71
REMARK   28  A    between atoms: _71  and  _72
REMARK   29  A    between atoms: _72  and  _73
REMARK   30  A    between atoms: _75  and  _77
REMARK   31  A    between atoms: _77  and  _78
REMARK   32  A    between atoms: _77  and  _80
REMARK   33  A    between atoms: _80  and  _81
REMARK   34  A    between atoms: _86  and  _87
REMARK   35  A    between atoms: _89  and  _91
REMARK   36  A    between atoms: _91  and  _92
REMARK   37  A    between atoms: _91  and  _94
REMARK   38  A    between atoms: _94  and  _95
REMARK   39  A    between atoms: _98  and  _100
REMARK   40  A    between atoms: _100  and  _101
REMARK   41  A    between atoms: _100  and  _103
REMARK   42  A    between atoms: _103  and  _104
REMARK   43  A    between atoms: _107  and  _109
REMARK   44  A    between atoms: _109  and  _110
REMARK   45  A    between atoms: _109  and  _112
REMARK   46  A    between atoms: _112  and  _113
REMARK   47  A    between atoms: _116  and  _118
REMARK   48  A    between atoms: _118  and  _119
REMARK   49  A    between atoms: _118  and  _121
REMARK   50  A    between atoms: _121  and  _122
REMARK   51  A    between atoms: _125  and  _127
REMARK   52  A    between atoms: _127  and  _128
REMARK   53  A    between atoms: _131  and  _133
REMARK   54  A    between atoms: _133  and  _134
REMARK   55  A    between atoms: _137  and  _139
REMARK   56  A    between atoms: _139  and  _140
REMARK   57  A    between atoms: _139  and  _142
REMARK   58  A    between atoms: _145  and  _147
REMARK   59  A    between atoms: _147  and  _148
REMARK   60  A    between atoms: _147  and  _150
REMARK   61  A    between atoms: _150  and  _151
REMARK   62  A    between atoms: _161  and  _163
REMARK   63  A    between atoms: _163  and  _164
REMARK   64  A    between atoms: _166  and  _168
REMARK   65  A    between atoms: _168  and  _169
REMARK   66  A    between atoms: _172  and  _174
REMARK   67  A    between atoms: _174  and  _175
REMARK   68  A    between atoms: _174  and  _177
REMARK   69  A    between atoms: _177  and  _178
REMARK   70  A    between atoms: _178  and  _179
REMARK   71  A    between atoms: _182  and  _184
REMARK   72  A    between atoms: _184  and  _185
REMARK   73  A    between atoms: _184  and  _187
REMARK   74  A    between atoms: _187  and  _188
REMARK   75  A    between atoms: _191  and  _193
REMARK   76  A    between atoms: _193  and  _194
REMARK   77  A    between atoms: _197  and  _199
REMARK   78  A    between atoms: _199  and  _200
REMARK   79  A    between atoms: _199  and  _202
REMARK   80  A    between atoms: _202  and  _203
REMARK   81  A    between atoms: _207  and  _208
REMARK   82  A    between atoms: _213  and  _215
REMARK   83  A    between atoms: _215  and  _216
REMARK   84  A    between atoms: _215  and  _218
REMARK   85  A    between atoms: _218  and  _219
REMARK   86  A    between atoms: _224  and  _226
REMARK   87  A    between atoms: _226  and  _227
REMARK   88  A    between atoms: _226  and  _229
REMARK   89  A    between atoms: _232  and  _234
REMARK   90  A    between atoms: _234  and  _235
REMARK   91  A    between atoms: _234  and  _237
REMARK   92  A    between atoms: _237  and  _238
REMARK   93  A    between atoms: _241  and  _243
REMARK   94  A    between atoms: _243  and  _244
REMARK   95  A    between atoms: _243  and  _246
REMARK   96  A    between atoms: _246  and  _247
REMARK   97  A    between atoms: _250  and  _252
REMARK   98  A    between atoms: _252  and  _253
REMARK   99  A    between atoms: _252  and  _255
REMARK  100  A    between atoms: _255  and  _256
REMARK  101  A    between atoms: _256  and  _257
REMARK  102  A    between atoms: _257  and  _258
REMARK  103  A    between atoms: _258  and  _259
REMARK  104  A    between atoms: _263  and  _265
REMARK  105  A    between atoms: _265  and  _266
REMARK  106  A    between atoms: _265  and  _268
REMARK  107  A    between atoms: _268  and  _269
REMARK  108  A    between atoms: _269  and  _270
REMARK  109  A    between atoms: _270  and  _271
REMARK  110  A    between atoms: _271  and  _272
REMARK  111  A    between atoms: _276  and  _278
REMARK  112  A    between atoms: _278  and  _279
REMARK  113  A    between atoms: _278  and  _281
REMARK  114  A    between atoms: _281  and  _282
REMARK  115  A    between atoms: _286  and  _287
REMARK  116  A    between atoms: _292  and  _294
REMARK  117  A    between atoms: _294  and  _295
REMARK  118  A    between atoms: _297  and  _299
REMARK  119  A    between atoms: _299  and  _300
REMARK  120  A    between atoms: _299  and  _302
REMARK  121  A    between atoms: _302  and  _303
REMARK  122  A    between atoms: _309  and  _310
REMARK  123  A    between atoms: _315  and  _317
REMARK  124  A    between atoms: _317  and  _318
REMARK  125  A    between atoms: _317  and  _320
REMARK  126  A    between atoms: _320  and  _321
REMARK  127  A    between atoms: _324  and  _326
REMARK  128  A    between atoms: _326  and  _327
REMARK  129  A    between atoms: _326  and  _329
REMARK  130  A    between atoms: _329  and  _330
REMARK  131  A    between atoms: _330  and  _331
REMARK  132  A    between atoms: _331  and  _332
REMARK  133  A    between atoms: _341  and  _343
REMARK  134  A    between atoms: _343  and  _344
REMARK  135  A    between atoms: _343  and  _346
REMARK  136  A    between atoms: _346  and  _347
REMARK  137  A    between atoms: _349  and  _351
REMARK  138  A    between atoms: _351  and  _352
REMARK  139  A    between atoms: _351  and  _354
REMARK  140  A    between atoms: _354  and  _355
REMARK  141  A    between atoms: _360  and  _361
REMARK  142  A    between atoms: _363  and  _365
REMARK  143  A    between atoms: _365  and  _366
REMARK  144  A    between atoms: _365  and  _368
REMARK  145  A    between atoms: _368  and  _369
REMARK  146  A    between atoms: _374  and  _376
REMARK  147  A    between atoms: _376  and  _377
REMARK  148  A    between atoms: _376  and  _379
REMARK  149  A    between atoms: _379  and  _380
REMARK  150  A    between atoms: _380  and  _381
REMARK  151  A    between atoms: _386  and  _388
REMARK  152  A    between atoms: _388  and  _389
REMARK  153  A    between atoms: _388  and  _391
REMARK  154  A    between atoms: _391  and  _392
REMARK  155  A    between atoms: _395  and  _397
REMARK  156  A    between atoms: _397  and  _398
REMARK  157  A    between atoms: _401  and  _403
REMARK  158  A    between atoms: _403  and  _404
REMARK  159  A    between atoms: _407  and  _409
REMARK  160  A    between atoms: _409  and  _410
REMARK  161  A    between atoms: _409  and  _412
REMARK  162  A    between atoms: _412  and  _413
REMARK  163  A    between atoms: _413  and  _414
REMARK  164  A    between atoms: _416  and  _418
REMARK  165  A    between atoms: _418  and  _419
REMARK  166  A    between atoms: _418  and  _421
REMARK  167  A    between atoms: _421  and  _422
REMARK  168  A    between atoms: _422  and  _423
REMARK  169  A    between atoms: _423  and  _424
REMARK  170  A    between atoms: _433  and  _435
REMARK  171  A    between atoms: _435  and  _436
REMARK  172  A    between atoms: _435  and  _438
REMARK  173  A    between atoms: _438  and  _439
REMARK  174  A    between atoms: _439  and  _440
REMARK  175  A    between atoms: _445  and  _447
REMARK  176  A    between atoms: _447  and  _448
REMARK  177  A    between atoms: _450  and  _452
REMARK  178  A    between atoms: _452  and  _453
REMARK  179  A    between atoms: _452  and  _455
REMARK  180  A    between atoms: _455  and  _456
REMARK  181  A    between atoms: _459  and  _461
REMARK  182  A    between atoms: _461  and  _462
REMARK  183  A    between atoms: _461  and  _464
REMARK  184  A    between atoms: _464  and  _465
REMARK  185  A    between atoms: _465  and  _466
REMARK  186  A    between atoms: _469  and  _471
REMARK  187  A    between atoms: _471  and  _472
REMARK  188  A    between atoms: _471  and  _474
REMARK  189  A    between atoms: _474  and  _475
REMARK  190  A    between atoms: _475  and  _476
REMARK  191  A    between atoms: _479  and  _481
REMARK  192  A    between atoms: _481  and  _482
REMARK  193  A    between atoms: _481  and  _484
REMARK  194  A    between atoms: _484  and  _485
REMARK  195  A    between atoms: _488  and  _490
REMARK  196  A    between atoms: _490  and  _491
REMARK  197  A    between atoms: _490  and  _493
REMARK  198  A    between atoms: _493  and  _494
REMARK  199  A    between atoms: _494  and  _495
REMARK  200  A    between atoms: _495  and  _496
REMARK  201  A    between atoms: _505  and  _507
REMARK  202  A    between atoms: _507  and  _508
REMARK  203  A    between atoms: _507  and  _510
REMARK  204  A    between atoms: _510  and  _511
REMARK  205  A    between atoms: _514  and  _516
REMARK  206  A    between atoms: _516  and  _517
REMARK  207  A    between atoms: _520  and  _522
REMARK  208  A    between atoms: _522  and  _523
REMARK  209  A    between atoms: _522  and  _525
REMARK  210  A    between atoms: _528  and  _530
REMARK  211  A    between atoms: _530  and  _531
REMARK  212  A    between atoms: _530  and  _533
REMARK  213  A    between atoms: _533  and  _534
REMARK  214  A    between atoms: _537  and  _539
REMARK  215  A    between atoms: _539  and  _540
REMARK  216  A    between atoms: _539  and  _542
REMARK  217  A    between atoms: _542  and  _543
REMARK  218  A    between atoms: _548  and  _549
REMARK                            x       y       z     vdW  Elec       q    Type
REMARK                         _______ _______ _______ _____ _____    ______ ____
ROOT
ATOM      1  O   HOH     1      -6.418   7.869 -26.785  0.00  0.00    +0.000 OA
ENDROOT
TORSDOF 0
REMARK  Name = ../refined-set-2016/2hw2/2hw2_pocket.pdb
REMARK  218 active torsions:
REMARK  status: ('A' for Active; 'I' for Inactive)
REMARK    1  A    between atoms: _2  and  _3
REMARK    2  A    between atoms: _8  and  _10
REMARK    3  A    between atoms: _10  and  _11
REMARK    4  A    between atoms: _10  and  _13
REMARK    5  A    between atoms: _13  and  _14
REMARK    6  A    between atoms: _20  and  _22
REMARK    7  A    between atoms: _22  and  _23
REMARK    8  A    between atoms: _25  and  _27
REMARK    9  A    between atoms: _27  and  _28
REMARK   10  A    between atoms: _27  and  _30
REMARK   11  A    between atoms: _30  and  _31
REMARK   12  A    between atoms: _33  and  _35
REMARK   13  A    between atoms: _35  and  _36
REMARK   14  A    between atoms: _35  and  _38
REMARK   15  A    between atoms: _38  and  _39
REMARK   16  A    between atoms: _44  and  _46
REMARK   17  A    between atoms: _46  and  _47
REMARK   18  A    between atoms: _46  and  _49
REMARK   19  A    between atoms: _49  and  _50
REMARK   20  A    between atoms: _56  and  _58
REMARK   21  A    between atoms: _58  and  _59
REMARK   22  A    between atoms: _58  and  _61
REMARK   23  A    between atoms: _61  and  _62
REMARK   24  A    between atoms: _62  and  _63
REMARK   25  A    between atoms: _66  and  _68
REMARK   26  A    between atoms: _68  and  _69
REMARK   27  A    between atoms: _68  and  _71
REMARK   28  A    between atoms: _71  and  _72
REMARK   29  A    between atoms: _72  and  _73
REMARK   30  A    between atoms: _75  and  _77
REMARK   31  A    between atoms: _77  and  _78
REMARK   32  A    between atoms: _77  and  _80
REMARK   33  A    between atoms: _80  and  _81
REMARK   34  A    between atoms: _86  and  _87
REMARK   35  A    between atoms: _89  and  _91
REMARK   36  A    between atoms: _91  and  _92
REMARK   37  A    between atoms: _91  and  _94
REMARK   38  A    between atoms: _94  and  _95
REMARK   39  A    between atoms: _98  and  _100
REMARK   40  A    between atoms: _100  and  _101
REMARK   41  A    between atoms: _100  and  _103
REMARK   42  A    between atoms: _103  and  _104
REMARK   43  A    between atoms: _107  and  _109
REMARK   44  A    between atoms: _109  and  _110
REMARK   45  A    between atoms: _109  and  _112
REMARK   46  A    between atoms: _112  and  _113
REMARK   47  A    between atoms: _116  and  _118
REMARK   48  A    between atoms: _118  and  _119
REMARK   49  A    between atoms: _118  and  _121
REMARK   50  A    between atoms: _121  and  _122
REMARK   51  A    between atoms: _125  and  _127
REMARK   52  A    between atoms: _127  and  _128
REMARK   53  A    between atoms: _131  and  _133
REMARK   54  A    between atoms: _133  and  _134
REMARK   55  A    between atoms: _137  and  _139
REMARK   56  A    between atoms: _139  and  _140
REMARK   57  A    between atoms: _139  and  _142
REMARK   58  A    between atoms: _145  and  _147
REMARK   59  A    between atoms: _147  and  _148
REMARK   60  A    between atoms: _147  and  _150
REMARK   61  A    between atoms: _150  and  _151
REMARK   62  A    between atoms: _161  and  _163
REMARK   63  A    between atoms: _163  and  _164
REMARK   64  A    between atoms: _166  and  _168
REMARK   65  A    between atoms: _168  and  _169
REMARK   66  A    between atoms: _172  and  _174
REMARK   67  A    between atoms: _174  and  _175
REMARK   68  A    between atoms: _174  and  _177
REMARK   69  A    between atoms: _177  and  _178
REMARK   70  A    between atoms: _178  and  _179
REMARK   71  A    between atoms: _182  and  _184
REMARK   72  A    between atoms: _184  and  _185
REMARK   73  A    between atoms: _184  and  _187
REMARK   74  A    between atoms: _187  and  _188
REMARK   75  A    between atoms: _191  and  _193
REMARK   76  A    between atoms: _193  and  _194
REMARK   77  A    between atoms: _197  and  _199
REMARK   78  A    between atoms: _199  and  _200
REMARK   79  A    between atoms: _199  and  _202
REMARK   80  A    between atoms: _202  and  _203
REMARK   81  A    between atoms: _207  and  _208
REMARK   82  A    between atoms: _213  and  _215
REMARK   83  A    between atoms: _215  and  _216
REMARK   84  A    between atoms: _215  and  _218
REMARK   85  A    between atoms: _218  and  _219
REMARK   86  A    between atoms: _224  and  _226
REMARK   87  A    between atoms: _226  and  _227
REMARK   88  A    between atoms: _226  and  _229
REMARK   89  A    between atoms: _232  and  _234
REMARK   90  A    between atoms: _234  and  _235
REMARK   91  A    between atoms: _234  and  _237
REMARK   92  A    between atoms: _237  and  _238
REMARK   93  A    between atoms: _241  and  _243
REMARK   94  A    between atoms: _243  and  _244
REMARK   95  A    between atoms: _243  and  _246
REMARK   96  A    between atoms: _246  and  _247
REMARK   97  A    between atoms: _250  and  _252
REMARK   98  A    between atoms: _252  and  _253
REMARK   99  A    between atoms: _252  and  _255
REMARK  100  A    between atoms: _255  and  _256
REMARK  101  A    between atoms: _256  and  _257
REMARK  102  A    between atoms: _257  and  _258
REMARK  103  A    between atoms: _258  and  _259
REMARK  104  A    between atoms: _263  and  _265
REMARK  105  A    between atoms: _265  and  _266
REMARK  106  A    between atoms: _265  and  _268
REMARK  107  A    between atoms: _268  and  _269
REMARK  108  A    between atoms: _269  and  _270
REMARK  109  A    between atoms: _270  and  _271
REMARK  110  A    between atoms: _271  and  _272
REMARK  111  A    between atoms: _276  and  _278
REMARK  112  A    between atoms: _278  and  _279
REMARK  113  A    between atoms: _278  and  _281
REMARK  114  A    between atoms: _281  and  _282
REMARK  115  A    between atoms: _286  and  _287
REMARK  116  A    between atoms: _292  and  _294
REMARK  117  A    between atoms: _294  and  _295
REMARK  118  A    between atoms: _297  and  _299
REMARK  119  A    between atoms: _299  and  _300
REMARK  120  A    between atoms: _299  and  _302
REMARK  121  A    between atoms: _302  and  _303
REMARK  122  A    between atoms: _309  and  _310
REMARK  123  A    between atoms: _315  and  _317
REMARK  124  A    between atoms: _317  and  _318
REMARK  125  A    between atoms: _317  and  _320
REMARK  126  A    between atoms: _320  and  _321
REMARK  127  A    between atoms: _324  and  _326
REMARK  128  A    between atoms: _326  and  _327
REMARK  129  A    between atoms: _326  and  _329
REMARK  130  A    between atoms: _329  and  _330
REMARK  131  A    between atoms: _330  and  _331
REMARK  132  A    between atoms: _331  and  _332
REMARK  133  A    between atoms: _341  and  _343
REMARK  134  A    between atoms: _343  and  _344
REMARK  135  A    between atoms: _343  and  _346
REMARK  136  A    between atoms: _346  and  _347
REMARK  137  A    between atoms: _349  and  _351
REMARK  138  A    between atoms: _351  and  _352
REMARK  139  A    between atoms: _351  and  _354
REMARK  140  A    between atoms: _354  and  _355
REMARK  141  A    between atoms: _360  and  _361
REMARK  142  A    between atoms: _363  and  _365
REMARK  143  A    between atoms: _365  and  _366
REMARK  144  A    between atoms: _365  and  _368
REMARK  145  A    between atoms: _368  and  _369
REMARK  146  A    between atoms: _374  and  _376
REMARK  147  A    between atoms: _376  and  _377
REMARK  148  A    between atoms: _376  and  _379
REMARK  149  A    between atoms: _379  and  _380
REMARK  150  A    between atoms: _380  and  _381
REMARK  151  A    between atoms: _386  and  _388
REMARK  152  A    between atoms: _388  and  _389
REMARK  153  A    between atoms: _388  and  _391
REMARK  154  A    between atoms: _391  and  _392
REMARK  155  A    between atoms: _395  and  _397
REMARK  156  A    between atoms: _397  and  _398
REMARK  157  A    between atoms: _401  and  _403
REMARK  158  A    between atoms: _403  and  _404
REMARK  159  A    between atoms: _407  and  _409
REMARK  160  A    between atoms: _409  and  _410
REMARK  161  A    between atoms: _409  and  _412
REMARK  162  A    between atoms: _412  and  _413
REMARK  163  A    between atoms: _413  and  _414
REMARK  164  A    between atoms: _416  and  _418
REMARK  165  A    between atoms: _418  and  _419
REMARK  166  A    between atoms: _418  and  _421
REMARK  167  A    between atoms: _421  and  _422
REMARK  168  A    between atoms: _422  and  _423
REMARK  169  A    between atoms: _423  and  _424
REMARK  170  A    between atoms: _433  and  _435
REMARK  171  A    between atoms: _435  and  _436
REMARK  172  A    between atoms: _435  and  _438
REMARK  173  A    between atoms: _438  and  _439
REMARK  174  A    between atoms: _439  and  _440
REMARK  175  A    between atoms: _445  and  _447
REMARK  176  A    between atoms: _447  and  _448
REMARK  177  A    between atoms: _450  and  _452
REMARK  178  A    between atoms: _452  and  _453
REMARK  179  A    between atoms: _452  and  _455
REMARK  180  A    between atoms: _455  and  _456
REMARK  181  A    between atoms: _459  and  _461
REMARK  182  A    between atoms: _461  and  _462
REMARK  183  A    between atoms: _461  and  _464
REMARK  184  A    between atoms: _464  and  _465
REMARK  185  A    between atoms: _465  and  _466
REMARK  186  A    between atoms: _469  and  _471
REMARK  187  A    between atoms: _471  and  _472
REMARK  188  A    between atoms: _471  and  _474
REMARK  189  A    between atoms: _474  and  _475
REMARK  190  A    between atoms: _475  and  _476
REMARK  191  A    between atoms: _479  and  _481
REMARK  192  A    between atoms: _481  and  _482
REMARK  193  A    between atoms: _481  and  _484
REMARK  194  A    between atoms: _484  and  _485
REMARK  195  A    between atoms: _488  and  _490
REMARK  196  A    between atoms: _490  and  _491
REMARK  197  A    between atoms: _490  and  _493
REMARK  198  A    between atoms: _493  and  _494
REMARK  199  A    between atoms: _494  and  _495
REMARK  200  A    between atoms: _495  and  _496
REMARK  201  A    between atoms: _505  and  _507
REMARK  202  A    between atoms: _507  and  _508
REMARK  203  A    between atoms: _507  and  _510
REMARK  204  A    between atoms: _510  and  _511
REMARK  205  A    between atoms: _514  and  _516
REMARK  206  A    between atoms: _516  and  _517
REMARK  207  A    between atoms: _520  and  _522
REMARK  208  A    between atoms: _522  and  _523
REMARK  209  A    between atoms: _522  and  _525
REMARK  210  A    between atoms: _528  and  _530
REMARK  211  A    between atoms: _530  and  _531
REMARK  212  A    between atoms: _530  and  _533
REMARK  213  A    between atoms: _533  and  _534
REMARK  214  A    between atoms: _537  and  _539
REMARK  215  A    between atoms: _539  and  _540
REMARK  216  A    between atoms: _539  and  _542
REMARK  217  A    between atoms: _542  and  _543
REMARK  218  A    between atoms: _548  and  _549
REMARK                            x       y       z     vdW  Elec       q    Type
REMARK                         _______ _______ _______ _____ _____    ______ ____
ROOT
ATOM      1  O   HOH     1     -23.690  13.363 -23.113  0.00  0.00    +0.000 OA
ENDROOT
TORSDOF 0
REMARK  Name = ../refined-set-2016/2hw2/2hw2_pocket.pdb
REMARK  218 active torsions:
REMARK  status: ('A' for Active; 'I' for Inactive)
REMARK    1  A    between atoms: _2  and  _3
REMARK    2  A    between atoms: _8  and  _10
REMARK    3  A    between atoms: _10  and  _11
REMARK    4  A    between atoms: _10  and  _13
REMARK    5  A    between atoms: _13  and  _14
REMARK    6  A    between atoms: _20  and  _22
REMARK    7  A    between atoms: _22  and  _23
REMARK    8  A    between atoms: _25  and  _27
REMARK    9  A    between atoms: _27  and  _28
REMARK   10  A    between atoms: _27  and  _30
REMARK   11  A    between atoms: _30  and  _31
REMARK   12  A    between atoms: _33  and  _35
REMARK   13  A    between atoms: _35  and  _36
REMARK   14  A    between atoms: _35  and  _38
REMARK   15  A    between atoms: _38  and  _39
REMARK   16  A    between atoms: _44  and  _46
REMARK   17  A    between atoms: _46  and  _47
REMARK   18  A    between atoms: _46  and  _49
REMARK   19  A    between atoms: _49  and  _50
REMARK   20  A    between atoms: _56  and  _58
REMARK   21  A    between atoms: _58  and  _59
REMARK   22  A    between atoms: _58  and  _61
REMARK   23  A    between atoms: _61  and  _62
REMARK   24  A    between atoms: _62  and  _63
REMARK   25  A    between atoms: _66  and  _68
REMARK   26  A    between atoms: _68  and  _69
REMARK   27  A    between atoms: _68  and  _71
REMARK   28  A    between atoms: _71  and  _72
REMARK   29  A    between atoms: _72  and  _73
REMARK   30  A    between atoms: _75  and  _77
REMARK   31  A    between atoms: _77  and  _78
REMARK   32  A    between atoms: _77  and  _80
REMARK   33  A    between atoms: _80  and  _81
REMARK   34  A    between atoms: _86  and  _87
REMARK   35  A    between atoms: _89  and  _91
REMARK   36  A    between atoms: _91  and  _92
REMARK   37  A    between atoms: _91  and  _94
REMARK   38  A    between atoms: _94  and  _95
REMARK   39  A    between atoms: _98  and  _100
REMARK   40  A    between atoms: _100  and  _101
REMARK   41  A    between atoms: _100  and  _103
REMARK   42  A    between atoms: _103  and  _104
REMARK   43  A    between atoms: _107  and  _109
REMARK   44  A    between atoms: _109  and  _110
REMARK   45  A    between atoms: _109  and  _112
REMARK   46  A    between atoms: _112  and  _113
REMARK   47  A    between atoms: _116  and  _118
REMARK   48  A    between atoms: _118  and  _119
REMARK   49  A    between atoms: _118  and  _121
REMARK   50  A    between atoms: _121  and  _122
REMARK   51  A    between atoms: _125  and  _127
REMARK   52  A    between atoms: _127  and  _128
REMARK   53  A    between atoms: _131  and  _133
REMARK   54  A    between atoms: _133  and  _134
REMARK   55  A    between atoms: _137  and  _139
REMARK   56  A    between atoms: _139  and  _140
REMARK   57  A    between atoms: _139  and  _142
REMARK   58  A    between atoms: _145  and  _147
REMARK   59  A    between atoms: _147  and  _148
REMARK   60  A    between atoms: _147  and  _150
REMARK   61  A    between atoms: _150  and  _151
REMARK   62  A    between atoms: _161  and  _163
REMARK   63  A    between atoms: _163  and  _164
REMARK   64  A    between atoms: _166  and  _168
REMARK   65  A    between atoms: _168  and  _169
REMARK   66  A    between atoms: _172  and  _174
REMARK   67  A    between atoms: _174  and  _175
REMARK   68  A    between atoms: _174  and  _177
REMARK   69  A    between atoms: _177  and  _178
REMARK   70  A    between atoms: _178  and  _179
REMARK   71  A    between atoms: _182  and  _184
REMARK   72  A    between atoms: _184  and  _185
REMARK   73  A    between atoms: _184  and  _187
REMARK   74  A    between atoms: _187  and  _188
REMARK   75  A    between atoms: _191  and  _193
REMARK   76  A    between atoms: _193  and  _194
REMARK   77  A    between atoms: _197  and  _199
REMARK   78  A    between atoms: _199  and  _200
REMARK   79  A    between atoms: _199  and  _202
REMARK   80  A    between atoms: _202  and  _203
REMARK   81  A    between atoms: _207  and  _208
REMARK   82  A    between atoms: _213  and  _215
REMARK   83  A    between atoms: _215  and  _216
REMARK   84  A    between atoms: _215  and  _218
REMARK   85  A    between atoms: _218  and  _219
REMARK   86  A    between atoms: _224  and  _226
REMARK   87  A    between atoms: _226  and  _227
REMARK   88  A    between atoms: _226  and  _229
REMARK   89  A    between atoms: _232  and  _234
REMARK   90  A    between atoms: _234  and  _235
REMARK   91  A    between atoms: _234  and  _237
REMARK   92  A    between atoms: _237  and  _238
REMARK   93  A    between atoms: _241  and  _243
REMARK   94  A    between atoms: _243  and  _244
REMARK   95  A    between atoms: _243  and  _246
REMARK   96  A    between atoms: _246  and  _247
REMARK   97  A    between atoms: _250  and  _252
REMARK   98  A    between atoms: _252  and  _253
REMARK   99  A    between atoms: _252  and  _255
REMARK  100  A    between atoms: _255  and  _256
REMARK  101  A    between atoms: _256  and  _257
REMARK  102  A    between atoms: _257  and  _258
REMARK  103  A    between atoms: _258  and  _259
REMARK  104  A    between atoms: _263  and  _265
REMARK  105  A    between atoms: _265  and  _266
REMARK  106  A    between atoms: _265  and  _268
REMARK  107  A    between atoms: _268  and  _269
REMARK  108  A    between atoms: _269  and  _270
REMARK  109  A    between atoms: _270  and  _271
REMARK  110  A    between atoms: _271  and  _272
REMARK  111  A    between atoms: _276  and  _278
REMARK  112  A    between atoms: _278  and  _279
REMARK  113  A    between atoms: _278  and  _281
REMARK  114  A    between atoms: _281  and  _282
REMARK  115  A    between atoms: _286  and  _287
REMARK  116  A    between atoms: _292  and  _294
REMARK  117  A    between atoms: _294  and  _295
REMARK  118  A    between atoms: _297  and  _299
REMARK  119  A    between atoms: _299  and  _300
REMARK  120  A    between atoms: _299  and  _302
REMARK  121  A    between atoms: _302  and  _303
REMARK  122  A    between atoms: _309  and  _310
REMARK  123  A    between atoms: _315  and  _317
REMARK  124  A    between atoms: _317  and  _318
REMARK  125  A    between atoms: _317  and  _320
REMARK  126  A    between atoms: _320  and  _321
REMARK  127  A    between atoms: _324  and  _326
REMARK  128  A    between atoms: _326  and  _327
REMARK  129  A    between atoms: _326  and  _329
REMARK  130  A    between atoms: _329  and  _330
REMARK  131  A    between atoms: _330  and  _331
REMARK  132  A    between atoms: _331  and  _332
REMARK  133  A    between atoms: _341  and  _343
REMARK  134  A    between atoms: _343  and  _344
REMARK  135  A    between atoms: _343  and  _346
REMARK  136  A    between atoms: _346  and  _347
REMARK  137  A    between atoms: _349  and  _351
REMARK  138  A    between atoms: _351  and  _352
REMARK  139  A    between atoms: _351  and  _354
REMARK  140  A    between atoms: _354  and  _355
REMARK  141  A    between atoms: _360  and  _361
REMARK  142  A    between atoms: _363  and  _365
REMARK  143  A    between atoms: _365  and  _366
REMARK  144  A    between atoms: _365  and  _368
REMARK  145  A    between atoms: _368  and  _369
REMARK  146  A    between atoms: _374  and  _376
REMARK  147  A    between atoms: _376  and  _377
REMARK  148  A    between atoms: _376  and  _379
REMARK  149  A    between atoms: _379  and  _380
REMARK  150  A    between atoms: _380  and  _381
REMARK  151  A    between atoms: _386  and  _388
REMARK  152  A    between atoms: _388  and  _389
REMARK  153  A    between atoms: _388  and  _391
REMARK  154  A    between atoms: _391  and  _392
REMARK  155  A    between atoms: _395  and  _397
REMARK  156  A    between atoms: _397  and  _398
REMARK  157  A    between atoms: _401  and  _403
REMARK  158  A    between atoms: _403  and  _404
REMARK  159  A    between atoms: _407  and  _409
REMARK  160  A    between atoms: _409  and  _410
REMARK  161  A    between atoms: _409  and  _412
REMARK  162  A    between atoms: _412  and  _413
REMARK  163  A    between atoms: _413  and  _414
REMARK  164  A    between atoms: _416  and  _418
REMARK  165  A    between atoms: _418  and  _419
REMARK  166  A    between atoms: _418  and  _421
REMARK  167  A    between atoms: _421  and  _422
REMARK  168  A    between atoms: _422  and  _423
REMARK  169  A    between atoms: _423  and  _424
REMARK  170  A    between atoms: _433  and  _435
REMARK  171  A    between atoms: _435  and  _436
REMARK  172  A    between atoms: _435  and  _438
REMARK  173  A    between atoms: _438  and  _439
REMARK  174  A    between atoms: _439  and  _440
REMARK  175  A    between atoms: _445  and  _447
REMARK  176  A    between atoms: _447  and  _448
REMARK  177  A    between atoms: _450  and  _452
REMARK  178  A    between atoms: _452  and  _453
REMARK  179  A    between atoms: _452  and  _455
REMARK  180  A    between atoms: _455  and  _456
REMARK  181  A    between atoms: _459  and  _461
REMARK  182  A    between atoms: _461  and  _462
REMARK  183  A    between atoms: _461  and  _464
REMARK  184  A    between atoms: _464  and  _465
REMARK  185  A    between atoms: _465  and  _466
REMARK  186  A    between atoms: _469  and  _471
REMARK  187  A    between atoms: _471  and  _472
REMARK  188  A    between atoms: _471  and  _474
REMARK  189  A    between atoms: _474  and  _475
REMARK  190  A    between atoms: _475  and  _476
REMARK  191  A    between atoms: _479  and  _481
REMARK  192  A    between atoms: _481  and  _482
REMARK  193  A    between atoms: _481  and  _484
REMARK  194  A    between atoms: _484  and  _485
REMARK  195  A    between atoms: _488  and  _490
REMARK  196  A    between atoms: _490  and  _491
REMARK  197  A    between atoms: _490  and  _493
REMARK  198  A    between atoms: _493  and  _494
REMARK  199  A    between atoms: _494  and  _495
REMARK  200  A    between atoms: _495  and  _496
REMARK  201  A    between atoms: _505  and  _507
REMARK  202  A    between atoms: _507  and  _508
REMARK  203  A    between atoms: _507  and  _510
REMARK  204  A    between atoms: _510  and  _511
REMARK  205  A    between atoms: _514  and  _516
REMARK  206  A    between atoms: _516  and  _517
REMARK  207  A    between atoms: _520  and  _522
REMARK  208  A    between atoms: _522  and  _523
REMARK  209  A    between atoms: _522  and  _525
REMARK  210  A    between atoms: _528  and  _530
REMARK  211  A    between atoms: _530  and  _531
REMARK  212  A    between atoms: _530  and  _533
REMARK  213  A    between atoms: _533  and  _534
REMARK  214  A    between atoms: _537  and  _539
REMARK  215  A    between atoms: _539  and  _540
REMARK  216  A    between atoms: _539  and  _542
REMARK  217  A    between atoms: _542  and  _543
REMARK  218  A    between atoms: _548  and  _549
REMARK                            x       y       z     vdW  Elec       q    Type
REMARK                         _______ _______ _______ _____ _____    ______ ____
ROOT
ATOM      1  O   HOH     1     -18.437  10.128 -26.917  0.00  0.00    +0.000 OA
ENDROOT
TORSDOF 0
REMARK  Name = ../refined-set-2016/2hw2/2hw2_pocket.pdb
REMARK  218 active torsions:
REMARK  status: ('A' for Active; 'I' for Inactive)
REMARK    1  A    between atoms: _2  and  _3
REMARK    2  A    between atoms: _8  and  _10
REMARK    3  A    between atoms: _10  and  _11
REMARK    4  A    between atoms: _10  and  _13
REMARK    5  A    between atoms: _13  and  _14
REMARK    6  A    between atoms: _20  and  _22
REMARK    7  A    between atoms: _22  and  _23
REMARK    8  A    between atoms: _25  and  _27
REMARK    9  A    between atoms: _27  and  _28
REMARK   10  A    between atoms: _27  and  _30
REMARK   11  A    between atoms: _30  and  _31
REMARK   12  A    between atoms: _33  and  _35
REMARK   13  A    between atoms: _35  and  _36
REMARK   14  A    between atoms: _35  and  _38
REMARK   15  A    between atoms: _38  and  _39
REMARK   16  A    between atoms: _44  and  _46
REMARK   17  A    between atoms: _46  and  _47
REMARK   18  A    between atoms: _46  and  _49
REMARK   19  A    between atoms: _49  and  _50
REMARK   20  A    between atoms: _56  and  _58
REMARK   21  A    between atoms: _58  and  _59
REMARK   22  A    between atoms: _58  and  _61
REMARK   23  A    between atoms: _61  and  _62
REMARK   24  A    between atoms: _62  and  _63
REMARK   25  A    between atoms: _66  and  _68
REMARK   26  A    between atoms: _68  and  _69
REMARK   27  A    between atoms: _68  and  _71
REMARK   28  A    between atoms: _71  and  _72
REMARK   29  A    between atoms: _72  and  _73
REMARK   30  A    between atoms: _75  and  _77
REMARK   31  A    between atoms: _77  and  _78
REMARK   32  A    between atoms: _77  and  _80
REMARK   33  A    between atoms: _80  and  _81
REMARK   34  A    between atoms: _86  and  _87
REMARK   35  A    between atoms: _89  and  _91
REMARK   36  A    between atoms: _91  and  _92
REMARK   37  A    between atoms: _91  and  _94
REMARK   38  A    between atoms: _94  and  _95
REMARK   39  A    between atoms: _98  and  _100
REMARK   40  A    between atoms: _100  and  _101
REMARK   41  A    between atoms: _100  and  _103
REMARK   42  A    between atoms: _103  and  _104
REMARK   43  A    between atoms: _107  and  _109
REMARK   44  A    between atoms: _109  and  _110
REMARK   45  A    between atoms: _109  and  _112
REMARK   46  A    between atoms: _112  and  _113
REMARK   47  A    between atoms: _116  and  _118
REMARK   48  A    between atoms: _118  and  _119
REMARK   49  A    between atoms: _118  and  _121
REMARK   50  A    between atoms: _121  and  _122
REMARK   51  A    between atoms: _125  and  _127
REMARK   52  A    between atoms: _127  and  _128
REMARK   53  A    between atoms: _131  and  _133
REMARK   54  A    between atoms: _133  and  _134
REMARK   55  A    between atoms: _137  and  _139
REMARK   56  A    between atoms: _139  and  _140
REMARK   57  A    between atoms: _139  and  _142
REMARK   58  A    between atoms: _145  and  _147
REMARK   59  A    between atoms: _147  and  _148
REMARK   60  A    between atoms: _147  and  _150
REMARK   61  A    between atoms: _150  and  _151
REMARK   62  A    between atoms: _161  and  _163
REMARK   63  A    between atoms: _163  and  _164
REMARK   64  A    between atoms: _166  and  _168
REMARK   65  A    between atoms: _168  and  _169
REMARK   66  A    between atoms: _172  and  _174
REMARK   67  A    between atoms: _174  and  _175
REMARK   68  A    between atoms: _174  and  _177
REMARK   69  A    between atoms: _177  and  _178
REMARK   70  A    between atoms: _178  and  _179
REMARK   71  A    between atoms: _182  and  _184
REMARK   72  A    between atoms: _184  and  _185
REMARK   73  A    between atoms: _184  and  _187
REMARK   74  A    between atoms: _187  and  _188
REMARK   75  A    between atoms: _191  and  _193
REMARK   76  A    between atoms: _193  and  _194
REMARK   77  A    between atoms: _197  and  _199
REMARK   78  A    between atoms: _199  and  _200
REMARK   79  A    between atoms: _199  and  _202
REMARK   80  A    between atoms: _202  and  _203
REMARK   81  A    between atoms: _207  and  _208
REMARK   82  A    between atoms: _213  and  _215
REMARK   83  A    between atoms: _215  and  _216
REMARK   84  A    between atoms: _215  and  _218
REMARK   85  A    between atoms: _218  and  _219
REMARK   86  A    between atoms: _224  and  _226
REMARK   87  A    between atoms: _226  and  _227
REMARK   88  A    between atoms: _226  and  _229
REMARK   89  A    between atoms: _232  and  _234
REMARK   90  A    between atoms: _234  and  _235
REMARK   91  A    between atoms: _234  and  _237
REMARK   92  A    between atoms: _237  and  _238
REMARK   93  A    between atoms: _241  and  _243
REMARK   94  A    between atoms: _243  and  _244
REMARK   95  A    between atoms: _243  and  _246
REMARK   96  A    between atoms: _246  and  _247
REMARK   97  A    between atoms: _250  and  _252
REMARK   98  A    between atoms: _252  and  _253
REMARK   99  A    between atoms: _252  and  _255
REMARK  100  A    between atoms: _255  and  _256
REMARK  101  A    between atoms: _256  and  _257
REMARK  102  A    between atoms: _257  and  _258
REMARK  103  A    between atoms: _258  and  _259
REMARK  104  A    between atoms: _263  and  _265
REMARK  105  A    between atoms: _265  and  _266
REMARK  106  A    between atoms: _265  and  _268
REMARK  107  A    between atoms: _268  and  _269
REMARK  108  A    between atoms: _269  and  _270
REMARK  109  A    between atoms: _270  and  _271
REMARK  110  A    between atoms: _271  and  _272
REMARK  111  A    between atoms: _276  and  _278
REMARK  112  A    between atoms: _278  and  _279
REMARK  113  A    between atoms: _278  and  _281
REMARK  114  A    between atoms: _281  and  _282
REMARK  115  A    between atoms: _286  and  _287
REMARK  116  A    between atoms: _292  and  _294
REMARK  117  A    between atoms: _294  and  _295
REMARK  118  A    between atoms: _297  and  _299
REMARK  119  A    between atoms: _299  and  _300
REMARK  120  A    between atoms: _299  and  _302
REMARK  121  A    between atoms: _302  and  _303
REMARK  122  A    between atoms: _309  and  _310
REMARK  123  A    between atoms: _315  and  _317
REMARK  124  A    between atoms: _317  and  _318
REMARK  125  A    between atoms: _317  and  _320
REMARK  126  A    between atoms: _320  and  _321
REMARK  127  A    between atoms: _324  and  _326
REMARK  128  A    between atoms: _326  and  _327
REMARK  129  A    between atoms: _326  and  _329
REMARK  130  A    between atoms: _329  and  _330
REMARK  131  A    between atoms: _330  and  _331
REMARK  132  A    between atoms: _331  and  _332
REMARK  133  A    between atoms: _341  and  _343
REMARK  134  A    between atoms: _343  and  _344
REMARK  135  A    between atoms: _343  and  _346
REMARK  136  A    between atoms: _346  and  _347
REMARK  137  A    between atoms: _349  and  _351
REMARK  138  A    between atoms: _351  and  _352
REMARK  139  A    between atoms: _351  and  _354
REMARK  140  A    between atoms: _354  and  _355
REMARK  141  A    between atoms: _360  and  _361
REMARK  142  A    between atoms: _363  and  _365
REMARK  143  A    between atoms: _365  and  _366
REMARK  144  A    between atoms: _365  and  _368
REMARK  145  A    between atoms: _368  and  _369
REMARK  146  A    between atoms: _374  and  _376
REMARK  147  A    between atoms: _376  and  _377
REMARK  148  A    between atoms: _376  and  _379
REMARK  149  A    between atoms: _379  and  _380
REMARK  150  A    between atoms: _380  and  _381
REMARK  151  A    between atoms: _386  and  _388
REMARK  152  A    between atoms: _388  and  _389
REMARK  153  A    between atoms: _388  and  _391
REMARK  154  A    between atoms: _391  and  _392
REMARK  155  A    between atoms: _395  and  _397
REMARK  156  A    between atoms: _397  and  _398
REMARK  157  A    between atoms: _401  and  _403
REMARK  158  A    between atoms: _403  and  _404
REMARK  159  A    between atoms: _407  and  _409
REMARK  160  A    between atoms: _409  and  _410
REMARK  161  A    between atoms: _409  and  _412
REMARK  162  A    between atoms: _412  and  _413
REMARK  163  A    between atoms: _413  and  _414
REMARK  164  A    between atoms: _416  and  _418
REMARK  165  A    between atoms: _418  and  _419
REMARK  166  A    between atoms: _418  and  _421
REMARK  167  A    between atoms: _421  and  _422
REMARK  168  A    between atoms: _422  and  _423
REMARK  169  A    between atoms: _423  and  _424
REMARK  170  A    between atoms: _433  and  _435
REMARK  171  A    between atoms: _435  and  _436
REMARK  172  A    between atoms: _435  and  _438
REMARK  173  A    between atoms: _438  and  _439
REMARK  174  A    between atoms: _439  and  _440
REMARK  175  A    between atoms: _445  and  _447
REMARK  176  A    between atoms: _447  and  _448
REMARK  177  A    between atoms: _450  and  _452
REMARK  178  A    between atoms: _452  and  _453
REMARK  179  A    between atoms: _452  and  _455
REMARK  180  A    between atoms: _455  and  _456
REMARK  181  A    between atoms: _459  and  _461
REMARK  182  A    between atoms: _461  and  _462
REMARK  183  A    between atoms: _461  and  _464
REMARK  184  A    between atoms: _464  and  _465
REMARK  185  A    between atoms: _465  and  _466
REMARK  186  A    between atoms: _469  and  _471
REMARK  187  A    between atoms: _471  and  _472
REMARK  188  A    between atoms: _471  and  _474
REMARK  189  A    between atoms: _474  and  _475
REMARK  190  A    between atoms: _475  and  _476
REMARK  191  A    between atoms: _479  and  _481
REMARK  192  A    between atoms: _481  and  _482
REMARK  193  A    between atoms: _481  and  _484
REMARK  194  A    between atoms: _484  and  _485
REMARK  195  A    between atoms: _488  and  _490
REMARK  196  A    between atoms: _490  and  _491
REMARK  197  A    between atoms: _490  and  _493
REMARK  198  A    between atoms: _493  and  _494
REMARK  199  A    between atoms: _494  and  _495
REMARK  200  A    between atoms: _495  and  _496
REMARK  201  A    between atoms: _505  and  _507
REMARK  202  A    between atoms: _507  and  _508
REMARK  203  A    between atoms: _507  and  _510
REMARK  204  A    between atoms: _510  and  _511
REMARK  205  A    between atoms: _514  and  _516
REMARK  206  A    between atoms: _516  and  _517
REMARK  207  A    between atoms: _520  and  _522
REMARK  208  A    between atoms: _522  and  _523
REMARK  209  A    between atoms: _522  and  _525
REMARK  210  A    between atoms: _528  and  _530
REMARK  211  A    between atoms: _530  and  _531
REMARK  212  A    between atoms: _530  and  _533
REMARK  213  A    between atoms: _533  and  _534
REMARK  214  A    between atoms: _537  and  _539
REMARK  215  A    between atoms: _539  and  _540
REMARK  216  A    between atoms: _539  and  _542
REMARK  217  A    between atoms: _542  and  _543
REMARK  218  A    between atoms: _548  and  _549
REMARK                            x       y       z     vdW  Elec       q    Type
REMARK                         _______ _______ _______ _____ _____    ______ ____
ROOT
ATOM      1  O   HOH     1     -13.883  19.939 -23.000  0.00  0.00    +0.000 OA
ENDROOT
TORSDOF 0
REMARK  Name = ../refined-set-2016/2hw2/2hw2_pocket.pdb
REMARK  218 active torsions:
REMARK  status: ('A' for Active; 'I' for Inactive)
REMARK    1  A    between atoms: _2  and  _3
REMARK    2  A    between atoms: _8  and  _10
REMARK    3  A    between atoms: _10  and  _11
REMARK    4  A    between atoms: _10  and  _13
REMARK    5  A    between atoms: _13  and  _14
REMARK    6  A    between atoms: _20  and  _22
REMARK    7  A    between atoms: _22  and  _23
REMARK    8  A    between atoms: _25  and  _27
REMARK    9  A    between atoms: _27  and  _28
REMARK   10  A    between atoms: _27  and  _30
REMARK   11  A    between atoms: _30  and  _31
REMARK   12  A    between atoms: _33  and  _35
REMARK   13  A    between atoms: _35  and  _36
REMARK   14  A    between atoms: _35  and  _38
REMARK   15  A    between atoms: _38  and  _39
REMARK   16  A    between atoms: _44  and  _46
REMARK   17  A    between atoms: _46  and  _47
REMARK   18  A    between atoms: _46  and  _49
REMARK   19  A    between atoms: _49  and  _50
REMARK   20  A    between atoms: _56  and  _58
REMARK   21  A    between atoms: _58  and  _59
REMARK   22  A    between atoms: _58  and  _61
REMARK   23  A    between atoms: _61  and  _62
REMARK   24  A    between atoms: _62  and  _63
REMARK   25  A    between atoms: _66  and  _68
REMARK   26  A    between atoms: _68  and  _69
REMARK   27  A    between atoms: _68  and  _71
REMARK   28  A    between atoms: _71  and  _72
REMARK   29  A    between atoms: _72  and  _73
REMARK   30  A    between atoms: _75  and  _77
REMARK   31  A    between atoms: _77  and  _78
REMARK   32  A    between atoms: _77  and  _80
REMARK   33  A    between atoms: _80  and  _81
REMARK   34  A    between atoms: _86  and  _87
REMARK   35  A    between atoms: _89  and  _91
REMARK   36  A    between atoms: _91  and  _92
REMARK   37  A    between atoms: _91  and  _94
REMARK   38  A    between atoms: _94  and  _95
REMARK   39  A    between atoms: _98  and  _100
REMARK   40  A    between atoms: _100  and  _101
REMARK   41  A    between atoms: _100  and  _103
REMARK   42  A    between atoms: _103  and  _104
REMARK   43  A    between atoms: _107  and  _109
REMARK   44  A    between atoms: _109  and  _110
REMARK   45  A    between atoms: _109  and  _112
REMARK   46  A    between atoms: _112  and  _113
REMARK   47  A    between atoms: _116  and  _118
REMARK   48  A    between atoms: _118  and  _119
REMARK   49  A    between atoms: _118  and  _121
REMARK   50  A    between atoms: _121  and  _122
REMARK   51  A    between atoms: _125  and  _127
REMARK   52  A    between atoms: _127  and  _128
REMARK   53  A    between atoms: _131  and  _133
REMARK   54  A    between atoms: _133  and  _134
REMARK   55  A    between atoms: _137  and  _139
REMARK   56  A    between atoms: _139  and  _140
REMARK   57  A    between atoms: _139  and  _142
REMARK   58  A    between atoms: _145  and  _147
REMARK   59  A    between atoms: _147  and  _148
REMARK   60  A    between atoms: _147  and  _150
REMARK   61  A    between atoms: _150  and  _151
REMARK   62  A    between atoms: _161  and  _163
REMARK   63  A    between atoms: _163  and  _164
REMARK   64  A    between atoms: _166  and  _168
REMARK   65  A    between atoms: _168  and  _169
REMARK   66  A    between atoms: _172  and  _174
REMARK   67  A    between atoms: _174  and  _175
REMARK   68  A    between atoms: _174  and  _177
REMARK   69  A    between atoms: _177  and  _178
REMARK   70  A    between atoms: _178  and  _179
REMARK   71  A    between atoms: _182  and  _184
REMARK   72  A    between atoms: _184  and  _185
REMARK   73  A    between atoms: _184  and  _187
REMARK   74  A    between atoms: _187  and  _188
REMARK   75  A    between atoms: _191  and  _193
REMARK   76  A    between atoms: _193  and  _194
REMARK   77  A    between atoms: _197  and  _199
REMARK   78  A    between atoms: _199  and  _200
REMARK   79  A    between atoms: _199  and  _202
REMARK   80  A    between atoms: _202  and  _203
REMARK   81  A    between atoms: _207  and  _208
REMARK   82  A    between atoms: _213  and  _215
REMARK   83  A    between atoms: _215  and  _216
REMARK   84  A    between atoms: _215  and  _218
REMARK   85  A    between atoms: _218  and  _219
REMARK   86  A    between atoms: _224  and  _226
REMARK   87  A    between atoms: _226  and  _227
REMARK   88  A    between atoms: _226  and  _229
REMARK   89  A    between atoms: _232  and  _234
REMARK   90  A    between atoms: _234  and  _235
REMARK   91  A    between atoms: _234  and  _237
REMARK   92  A    between atoms: _237  and  _238
REMARK   93  A    between atoms: _241  and  _243
REMARK   94  A    between atoms: _243  and  _244
REMARK   95  A    between atoms: _243  and  _246
REMARK   96  A    between atoms: _246  and  _247
REMARK   97  A    between atoms: _250  and  _252
REMARK   98  A    between atoms: _252  and  _253
REMARK   99  A    between atoms: _252  and  _255
REMARK  100  A    between atoms: _255  and  _256
REMARK  101  A    between atoms: _256  and  _257
REMARK  102  A    between atoms: _257  and  _258
REMARK  103  A    between atoms: _258  and  _259
REMARK  104  A    between atoms: _263  and  _265
REMARK  105  A    between atoms: _265  and  _266
REMARK  106  A    between atoms: _265  and  _268
REMARK  107  A    between atoms: _268  and  _269
REMARK  108  A    between atoms: _269  and  _270
REMARK  109  A    between atoms: _270  and  _271
REMARK  110  A    between atoms: _271  and  _272
REMARK  111  A    between atoms: _276  and  _278
REMARK  112  A    between atoms: _278  and  _279
REMARK  113  A    between atoms: _278  and  _281
REMARK  114  A    between atoms: _281  and  _282
REMARK  115  A    between atoms: _286  and  _287
REMARK  116  A    between atoms: _292  and  _294
REMARK  117  A    between atoms: _294  and  _295
REMARK  118  A    between atoms: _297  and  _299
REMARK  119  A    between atoms: _299  and  _300
REMARK  120  A    between atoms: _299  and  _302
REMARK  121  A    between atoms: _302  and  _303
REMARK  122  A    between atoms: _309  and  _310
REMARK  123  A    between atoms: _315  and  _317
REMARK  124  A    between atoms: _317  and  _318
REMARK  125  A    between atoms: _317  and  _320
REMARK  126  A    between atoms: _320  and  _321
REMARK  127  A    between atoms: _324  and  _326
REMARK  128  A    between atoms: _326  and  _327
REMARK  129  A    between atoms: _326  and  _329
REMARK  130  A    between atoms: _329  and  _330
REMARK  131  A    between atoms: _330  and  _331
REMARK  132  A    between atoms: _331  and  _332
REMARK  133  A    between atoms: _341  and  _343
REMARK  134  A    between atoms: _343  and  _344
REMARK  135  A    between atoms: _343  and  _346
REMARK  136  A    between atoms: _346  and  _347
REMARK  137  A    between atoms: _349  and  _351
REMARK  138  A    between atoms: _351  and  _352
REMARK  139  A    between atoms: _351  and  _354
REMARK  140  A    between atoms: _354  and  _355
REMARK  141  A    between atoms: _360  and  _361
REMARK  142  A    between atoms: _363  and  _365
REMARK  143  A    between atoms: _365  and  _366
REMARK  144  A    between atoms: _365  and  _368
REMARK  145  A    between atoms: _368  and  _369
REMARK  146  A    between atoms: _374  and  _376
REMARK  147  A    between atoms: _376  and  _377
REMARK  148  A    between atoms: _376  and  _379
REMARK  149  A    between atoms: _379  and  _380
REMARK  150  A    between atoms: _380  and  _381
REMARK  151  A    between atoms: _386  and  _388
REMARK  152  A    between atoms: _388  and  _389
REMARK  153  A    between atoms: _388  and  _391
REMARK  154  A    between atoms: _391  and  _392
REMARK  155  A    between atoms: _395  and  _397
REMARK  156  A    between atoms: _397  and  _398
REMARK  157  A    between atoms: _401  and  _403
REMARK  158  A    between atoms: _403  and  _404
REMARK  159  A    between atoms: _407  and  _409
REMARK  160  A    between atoms: _409  and  _410
REMARK  161  A    between atoms: _409  and  _412
REMARK  162  A    between atoms: _412  and  _413
REMARK  163  A    between atoms: _413  and  _414
REMARK  164  A    between atoms: _416  and  _418
REMARK  165  A    between atoms: _418  and  _419
REMARK  166  A    between atoms: _418  and  _421
REMARK  167  A    between atoms: _421  and  _422
REMARK  168  A    between atoms: _422  and  _423
REMARK  169  A    between atoms: _423  and  _424
REMARK  170  A    between atoms: _433  and  _435
REMARK  171  A    between atoms: _435  and  _436
REMARK  172  A    between atoms: _435  and  _438
REMARK  173  A    between atoms: _438  and  _439
REMARK  174  A    between atoms: _439  and  _440
REMARK  175  A    between atoms: _445  and  _447
REMARK  176  A    between atoms: _447  and  _448
REMARK  177  A    between atoms: _450  and  _452
REMARK  178  A    between atoms: _452  and  _453
REMARK  179  A    between atoms: _452  and  _455
REMARK  180  A    between atoms: _455  and  _456
REMARK  181  A    between atoms: _459  and  _461
REMARK  182  A    between atoms: _461  and  _462
REMARK  183  A    between atoms: _461  and  _464
REMARK  184  A    between atoms: _464  and  _465
REMARK  185  A    between atoms: _465  and  _466
REMARK  186  A    between atoms: _469  and  _471
REMARK  187  A    between atoms: _471  and  _472
REMARK  188  A    between atoms: _471  and  _474
REMARK  189  A    between atoms: _474  and  _475
REMARK  190  A    between atoms: _475  and  _476
REMARK  191  A    between atoms: _479  and  _481
REMARK  192  A    between atoms: _481  and  _482
REMARK  193  A    between atoms: _481  and  _484
REMARK  194  A    between atoms: _484  and  _485
REMARK  195  A    between atoms: _488  and  _490
REMARK  196  A    between atoms: _490  and  _491
REMARK  197  A    between atoms: _490  and  _493
REMARK  198  A    between atoms: _493  and  _494
REMARK  199  A    between atoms: _494  and  _495
REMARK  200  A    between atoms: _495  and  _496
REMARK  201  A    between atoms: _505  and  _507
REMARK  202  A    between atoms: _507  and  _508
REMARK  203  A    between atoms: _507  and  _510
REMARK  204  A    between atoms: _510  and  _511
REMARK  205  A    between atoms: _514  and  _516
REMARK  206  A    between atoms: _516  and  _517
REMARK  207  A    between atoms: _520  and  _522
REMARK  208  A    between atoms: _522  and  _523
REMARK  209  A    between atoms: _522  and  _525
REMARK  210  A    between atoms: _528  and  _530
REMARK  211  A    between atoms: _530  and  _531
REMARK  212  A    between atoms: _530  and  _533
REMARK  213  A    between atoms: _533  and  _534
REMARK  214  A    between atoms: _537  and  _539
REMARK  215  A    between atoms: _539  and  _540
REMARK  216  A    between atoms: _539  and  _542
REMARK  217  A    between atoms: _542  and  _543
REMARK  218  A    between atoms: _548  and  _549
REMARK                            x       y       z     vdW  Elec       q    Type
REMARK                         _______ _______ _______ _____ _____    ______ ____
ROOT
ATOM      1  O   HOH     1       0.482   5.429 -16.838  0.00  0.00    +0.000 OA
ENDROOT
TORSDOF 0
REMARK  Name = ../refined-set-2016/2hw2/2hw2_pocket.pdb
REMARK  218 active torsions:
REMARK  status: ('A' for Active; 'I' for Inactive)
REMARK    1  A    between atoms: _2  and  _3
REMARK    2  A    between atoms: _8  and  _10
REMARK    3  A    between atoms: _10  and  _11
REMARK    4  A    between atoms: _10  and  _13
REMARK    5  A    between atoms: _13  and  _14
REMARK    6  A    between atoms: _20  and  _22
REMARK    7  A    between atoms: _22  and  _23
REMARK    8  A    between atoms: _25  and  _27
REMARK    9  A    between atoms: _27  and  _28
REMARK   10  A    between atoms: _27  and  _30
REMARK   11  A    between atoms: _30  and  _31
REMARK   12  A    between atoms: _33  and  _35
REMARK   13  A    between atoms: _35  and  _36
REMARK   14  A    between atoms: _35  and  _38
REMARK   15  A    between atoms: _38  and  _39
REMARK   16  A    between atoms: _44  and  _46
REMARK   17  A    between atoms: _46  and  _47
REMARK   18  A    between atoms: _46  and  _49
REMARK   19  A    between atoms: _49  and  _50
REMARK   20  A    between atoms: _56  and  _58
REMARK   21  A    between atoms: _58  and  _59
REMARK   22  A    between atoms: _58  and  _61
REMARK   23  A    between atoms: _61  and  _62
REMARK   24  A    between atoms: _62  and  _63
REMARK   25  A    between atoms: _66  and  _68
REMARK   26  A    between atoms: _68  and  _69
REMARK   27  A    between atoms: _68  and  _71
REMARK   28  A    between atoms: _71  and  _72
REMARK   29  A    between atoms: _72  and  _73
REMARK   30  A    between atoms: _75  and  _77
REMARK   31  A    between atoms: _77  and  _78
REMARK   32  A    between atoms: _77  and  _80
REMARK   33  A    between atoms: _80  and  _81
REMARK   34  A    between atoms: _86  and  _87
REMARK   35  A    between atoms: _89  and  _91
REMARK   36  A    between atoms: _91  and  _92
REMARK   37  A    between atoms: _91  and  _94
REMARK   38  A    between atoms: _94  and  _95
REMARK   39  A    between atoms: _98  and  _100
REMARK   40  A    between atoms: _100  and  _101
REMARK   41  A    between atoms: _100  and  _103
REMARK   42  A    between atoms: _103  and  _104
REMARK   43  A    between atoms: _107  and  _109
REMARK   44  A    between atoms: _109  and  _110
REMARK   45  A    between atoms: _109  and  _112
REMARK   46  A    between atoms: _112  and  _113
REMARK   47  A    between atoms: _116  and  _118
REMARK   48  A    between atoms: _118  and  _119
REMARK   49  A    between atoms: _118  and  _121
REMARK   50  A    between atoms: _121  and  _122
REMARK   51  A    between atoms: _125  and  _127
REMARK   52  A    between atoms: _127  and  _128
REMARK   53  A    between atoms: _131  and  _133
REMARK   54  A    between atoms: _133  and  _134
REMARK   55  A    between atoms: _137  and  _139
REMARK   56  A    between atoms: _139  and  _140
REMARK   57  A    between atoms: _139  and  _142
REMARK   58  A    between atoms: _145  and  _147
REMARK   59  A    between atoms: _147  and  _148
REMARK   60  A    between atoms: _147  and  _150
REMARK   61  A    between atoms: _150  and  _151
REMARK   62  A    between atoms: _161  and  _163
REMARK   63  A    between atoms: _163  and  _164
REMARK   64  A    between atoms: _166  and  _168
REMARK   65  A    between atoms: _168  and  _169
REMARK   66  A    between atoms: _172  and  _174
REMARK   67  A    between atoms: _174  and  _175
REMARK   68  A    between atoms: _174  and  _177
REMARK   69  A    between atoms: _177  and  _178
REMARK   70  A    between atoms: _178  and  _179
REMARK   71  A    between atoms: _182  and  _184
REMARK   72  A    between atoms: _184  and  _185
REMARK   73  A    between atoms: _184  and  _187
REMARK   74  A    between atoms: _187  and  _188
REMARK   75  A    between atoms: _191  and  _193
REMARK   76  A    between atoms: _193  and  _194
REMARK   77  A    between atoms: _197  and  _199
REMARK   78  A    between atoms: _199  and  _200
REMARK   79  A    between atoms: _199  and  _202
REMARK   80  A    between atoms: _202  and  _203
REMARK   81  A    between atoms: _207  and  _208
REMARK   82  A    between atoms: _213  and  _215
REMARK   83  A    between atoms: _215  and  _216
REMARK   84  A    between atoms: _215  and  _218
REMARK   85  A    between atoms: _218  and  _219
REMARK   86  A    between atoms: _224  and  _226
REMARK   87  A    between atoms: _226  and  _227
REMARK   88  A    between atoms: _226  and  _229
REMARK   89  A    between atoms: _232  and  _234
REMARK   90  A    between atoms: _234  and  _235
REMARK   91  A    between atoms: _234  and  _237
REMARK   92  A    between atoms: _237  and  _238
REMARK   93  A    between atoms: _241  and  _243
REMARK   94  A    between atoms: _243  and  _244
REMARK   95  A    between atoms: _243  and  _246
REMARK   96  A    between atoms: _246  and  _247
REMARK   97  A    between atoms: _250  and  _252
REMARK   98  A    between atoms: _252  and  _253
REMARK   99  A    between atoms: _252  and  _255
REMARK  100  A    between atoms: _255  and  _256
REMARK  101  A    between atoms: _256  and  _257
REMARK  102  A    between atoms: _257  and  _258
REMARK  103  A    between atoms: _258  and  _259
REMARK  104  A    between atoms: _263  and  _265
REMARK  105  A    between atoms: _265  and  _266
REMARK  106  A    between atoms: _265  and  _268
REMARK  107  A    between atoms: _268  and  _269
REMARK  108  A    between atoms: _269  and  _270
REMARK  109  A    between atoms: _270  and  _271
REMARK  110  A    between atoms: _271  and  _272
REMARK  111  A    between atoms: _276  and  _278
REMARK  112  A    between atoms: _278  and  _279
REMARK  113  A    between atoms: _278  and  _281
REMARK  114  A    between atoms: _281  and  _282
REMARK  115  A    between atoms: _286  and  _287
REMARK  116  A    between atoms: _292  and  _294
REMARK  117  A    between atoms: _294  and  _295
REMARK  118  A    between atoms: _297  and  _299
REMARK  119  A    between atoms: _299  and  _300
REMARK  120  A    between atoms: _299  and  _302
REMARK  121  A    between atoms: _302  and  _303
REMARK  122  A    between atoms: _309  and  _310
REMARK  123  A    between atoms: _315  and  _317
REMARK  124  A    between atoms: _317  and  _318
REMARK  125  A    between atoms: _317  and  _320
REMARK  126  A    between atoms: _320  and  _321
REMARK  127  A    between atoms: _324  and  _326
REMARK  128  A    between atoms: _326  and  _327
REMARK  129  A    between atoms: _326  and  _329
REMARK  130  A    between atoms: _329  and  _330
REMARK  131  A    between atoms: _330  and  _331
REMARK  132  A    between atoms: _331  and  _332
REMARK  133  A    between atoms: _341  and  _343
REMARK  134  A    between atoms: _343  and  _344
REMARK  135  A    between atoms: _343  and  _346
REMARK  136  A    between atoms: _346  and  _347
REMARK  137  A    between atoms: _349  and  _351
REMARK  138  A    between atoms: _351  and  _352
REMARK  139  A    between atoms: _351  and  _354
REMARK  140  A    between atoms: _354  and  _355
REMARK  141  A    between atoms: _360  and  _361
REMARK  142  A    between atoms: _363  and  _365
REMARK  143  A    between atoms: _365  and  _366
REMARK  144  A    between atoms: _365  and  _368
REMARK  145  A    between atoms: _368  and  _369
REMARK  146  A    between atoms: _374  and  _376
REMARK  147  A    between atoms: _376  and  _377
REMARK  148  A    between atoms: _376  and  _379
REMARK  149  A    between atoms: _379  and  _380
REMARK  150  A    between atoms: _380  and  _381
REMARK  151  A    between atoms: _386  and  _388
REMARK  152  A    between atoms: _388  and  _389
REMARK  153  A    between atoms: _388  and  _391
REMARK  154  A    between atoms: _391  and  _392
REMARK  155  A    between atoms: _395  and  _397
REMARK  156  A    between atoms: _397  and  _398
REMARK  157  A    between atoms: _401  and  _403
REMARK  158  A    between atoms: _403  and  _404
REMARK  159  A    between atoms: _407  and  _409
REMARK  160  A    between atoms: _409  and  _410
REMARK  161  A    between atoms: _409  and  _412
REMARK  162  A    between atoms: _412  and  _413
REMARK  163  A    between atoms: _413  and  _414
REMARK  164  A    between atoms: _416  and  _418
REMARK  165  A    between atoms: _418  and  _419
REMARK  166  A    between atoms: _418  and  _421
REMARK  167  A    between atoms: _421  and  _422
REMARK  168  A    between atoms: _422  and  _423
REMARK  169  A    between atoms: _423  and  _424
REMARK  170  A    between atoms: _433  and  _435
REMARK  171  A    between atoms: _435  and  _436
REMARK  172  A    between atoms: _435  and  _438
REMARK  173  A    between atoms: _438  and  _439
REMARK  174  A    between atoms: _439  and  _440
REMARK  175  A    between atoms: _445  and  _447
REMARK  176  A    between atoms: _447  and  _448
REMARK  177  A    between atoms: _450  and  _452
REMARK  178  A    between atoms: _452  and  _453
REMARK  179  A    between atoms: _452  and  _455
REMARK  180  A    between atoms: _455  and  _456
REMARK  181  A    between atoms: _459  and  _461
REMARK  182  A    between atoms: _461  and  _462
REMARK  183  A    between atoms: _461  and  _464
REMARK  184  A    between atoms: _464  and  _465
REMARK  185  A    between atoms: _465  and  _466
REMARK  186  A    between atoms: _469  and  _471
REMARK  187  A    between atoms: _471  and  _472
REMARK  188  A    between atoms: _471  and  _474
REMARK  189  A    between atoms: _474  and  _475
REMARK  190  A    between atoms: _475  and  _476
REMARK  191  A    between atoms: _479  and  _481
REMARK  192  A    between atoms: _481  and  _482
REMARK  193  A    between atoms: _481  and  _484
REMARK  194  A    between atoms: _484  and  _485
REMARK  195  A    between atoms: _488  and  _490
REMARK  196  A    between atoms: _490  and  _491
REMARK  197  A    between atoms: _490  and  _493
REMARK  198  A    between atoms: _493  and  _494
REMARK  199  A    between atoms: _494  and  _495
REMARK  200  A    between atoms: _495  and  _496
REMARK  201  A    between atoms: _505  and  _507
REMARK  202  A    between atoms: _507  and  _508
REMARK  203  A    between atoms: _507  and  _510
REMARK  204  A    between atoms: _510  and  _511
REMARK  205  A    between atoms: _514  and  _516
REMARK  206  A    between atoms: _516  and  _517
REMARK  207  A    between atoms: _520  and  _522
REMARK  208  A    between atoms: _522  and  _523
REMARK  209  A    between atoms: _522  and  _525
REMARK  210  A    between atoms: _528  and  _530
REMARK  211  A    between atoms: _530  and  _531
REMARK  212  A    between atoms: _530  and  _533
REMARK  213  A    between atoms: _533  and  _534
REMARK  214  A    between atoms: _537  and  _539
REMARK  215  A    between atoms: _539  and  _540
REMARK  216  A    between atoms: _539  and  _542
REMARK  217  A    between atoms: _542  and  _543
REMARK  218  A    between atoms: _548  and  _549
REMARK                            x       y       z     vdW  Elec       q    Type
REMARK                         _______ _______ _______ _____ _____    ______ ____
ROOT
ATOM      1  O   HOH     1      -6.500  11.832 -13.908  0.00  0.00    +0.000 OA
ENDROOT
TORSDOF 0
REMARK  Name = ../refined-set-2016/2hw2/2hw2_pocket.pdb
REMARK  218 active torsions:
REMARK  status: ('A' for Active; 'I' for Inactive)
REMARK    1  A    between atoms: _2  and  _3
REMARK    2  A    between atoms: _8  and  _10
REMARK    3  A    between atoms: _10  and  _11
REMARK    4  A    between atoms: _10  and  _13
REMARK    5  A    between atoms: _13  and  _14
REMARK    6  A    between atoms: _20  and  _22
REMARK    7  A    between atoms: _22  and  _23
REMARK    8  A    between atoms: _25  and  _27
REMARK    9  A    between atoms: _27  and  _28
REMARK   10  A    between atoms: _27  and  _30
REMARK   11  A    between atoms: _30  and  _31
REMARK   12  A    between atoms: _33  and  _35
REMARK   13  A    between atoms: _35  and  _36
REMARK   14  A    between atoms: _35  and  _38
REMARK   15  A    between atoms: _38  and  _39
REMARK   16  A    between atoms: _44  and  _46
REMARK   17  A    between atoms: _46  and  _47
REMARK   18  A    between atoms: _46  and  _49
REMARK   19  A    between atoms: _49  and  _50
REMARK   20  A    between atoms: _56  and  _58
REMARK   21  A    between atoms: _58  and  _59
REMARK   22  A    between atoms: _58  and  _61
REMARK   23  A    between atoms: _61  and  _62
REMARK   24  A    between atoms: _62  and  _63
REMARK   25  A    between atoms: _66  and  _68
REMARK   26  A    between atoms: _68  and  _69
REMARK   27  A    between atoms: _68  and  _71
REMARK   28  A    between atoms: _71  and  _72
REMARK   29  A    between atoms: _72  and  _73
REMARK   30  A    between atoms: _75  and  _77
REMARK   31  A    between atoms: _77  and  _78
REMARK   32  A    between atoms: _77  and  _80
REMARK   33  A    between atoms: _80  and  _81
REMARK   34  A    between atoms: _86  and  _87
REMARK   35  A    between atoms: _89  and  _91
REMARK   36  A    between atoms: _91  and  _92
REMARK   37  A    between atoms: _91  and  _94
REMARK   38  A    between atoms: _94  and  _95
REMARK   39  A    between atoms: _98  and  _100
REMARK   40  A    between atoms: _100  and  _101
REMARK   41  A    between atoms: _100  and  _103
REMARK   42  A    between atoms: _103  and  _104
REMARK   43  A    between atoms: _107  and  _109
REMARK   44  A    between atoms: _109  and  _110
REMARK   45  A    between atoms: _109  and  _112
REMARK   46  A    between atoms: _112  and  _113
REMARK   47  A    between atoms: _116  and  _118
REMARK   48  A    between atoms: _118  and  _119
REMARK   49  A    between atoms: _118  and  _121
REMARK   50  A    between atoms: _121  and  _122
REMARK   51  A    between atoms: _125  and  _127
REMARK   52  A    between atoms: _127  and  _128
REMARK   53  A    between atoms: _131  and  _133
REMARK   54  A    between atoms: _133  and  _134
REMARK   55  A    between atoms: _137  and  _139
REMARK   56  A    between atoms: _139  and  _140
REMARK   57  A    between atoms: _139  and  _142
REMARK   58  A    between atoms: _145  and  _147
REMARK   59  A    between atoms: _147  and  _148
REMARK   60  A    between atoms: _147  and  _150
REMARK   61  A    between atoms: _150  and  _151
REMARK   62  A    between atoms: _161  and  _163
REMARK   63  A    between atoms: _163  and  _164
REMARK   64  A    between atoms: _166  and  _168
REMARK   65  A    between atoms: _168  and  _169
REMARK   66  A    between atoms: _172  and  _174
REMARK   67  A    between atoms: _174  and  _175
REMARK   68  A    between atoms: _174  and  _177
REMARK   69  A    between atoms: _177  and  _178
REMARK   70  A    between atoms: _178  and  _179
REMARK   71  A    between atoms: _182  and  _184
REMARK   72  A    between atoms: _184  and  _185
REMARK   73  A    between atoms: _184  and  _187
REMARK   74  A    between atoms: _187  and  _188
REMARK   75  A    between atoms: _191  and  _193
REMARK   76  A    between atoms: _193  and  _194
REMARK   77  A    between atoms: _197  and  _199
REMARK   78  A    between atoms: _199  and  _200
REMARK   79  A    between atoms: _199  and  _202
REMARK   80  A    between atoms: _202  and  _203
REMARK   81  A    between atoms: _207  and  _208
REMARK   82  A    between atoms: _213  and  _215
REMARK   83  A    between atoms: _215  and  _216
REMARK   84  A    between atoms: _215  and  _218
REMARK   85  A    between atoms: _218  and  _219
REMARK   86  A    between atoms: _224  and  _226
REMARK   87  A    between atoms: _226  and  _227
REMARK   88  A    between atoms: _226  and  _229
REMARK   89  A    between atoms: _232  and  _234
REMARK   90  A    between atoms: _234  and  _235
REMARK   91  A    between atoms: _234  and  _237
REMARK   92  A    between atoms: _237  and  _238
REMARK   93  A    between atoms: _241  and  _243
REMARK   94  A    between atoms: _243  and  _244
REMARK   95  A    between atoms: _243  and  _246
REMARK   96  A    between atoms: _246  and  _247
REMARK   97  A    between atoms: _250  and  _252
REMARK   98  A    between atoms: _252  and  _253
REMARK   99  A    between atoms: _252  and  _255
REMARK  100  A    between atoms: _255  and  _256
REMARK  101  A    between atoms: _256  and  _257
REMARK  102  A    between atoms: _257  and  _258
REMARK  103  A    between atoms: _258  and  _259
REMARK  104  A    between atoms: _263  and  _265
REMARK  105  A    between atoms: _265  and  _266
REMARK  106  A    between atoms: _265  and  _268
REMARK  107  A    between atoms: _268  and  _269
REMARK  108  A    between atoms: _269  and  _270
REMARK  109  A    between atoms: _270  and  _271
REMARK  110  A    between atoms: _271  and  _272
REMARK  111  A    between atoms: _276  and  _278
REMARK  112  A    between atoms: _278  and  _279
REMARK  113  A    between atoms: _278  and  _281
REMARK  114  A    between atoms: _281  and  _282
REMARK  115  A    between atoms: _286  and  _287
REMARK  116  A    between atoms: _292  and  _294
REMARK  117  A    between atoms: _294  and  _295
REMARK  118  A    between atoms: _297  and  _299
REMARK  119  A    between atoms: _299  and  _300
REMARK  120  A    between atoms: _299  and  _302
REMARK  121  A    between atoms: _302  and  _303
REMARK  122  A    between atoms: _309  and  _310
REMARK  123  A    between atoms: _315  and  _317
REMARK  124  A    between atoms: _317  and  _318
REMARK  125  A    between atoms: _317  and  _320
REMARK  126  A    between atoms: _320  and  _321
REMARK  127  A    between atoms: _324  and  _326
REMARK  128  A    between atoms: _326  and  _327
REMARK  129  A    between atoms: _326  and  _329
REMARK  130  A    between atoms: _329  and  _330
REMARK  131  A    between atoms: _330  and  _331
REMARK  132  A    between atoms: _331  and  _332
REMARK  133  A    between atoms: _341  and  _343
REMARK  134  A    between atoms: _343  and  _344
REMARK  135  A    between atoms: _343  and  _346
REMARK  136  A    between atoms: _346  and  _347
REMARK  137  A    between atoms: _349  and  _351
REMARK  138  A    between atoms: _351  and  _352
REMARK  139  A    between atoms: _351  and  _354
REMARK  140  A    between atoms: _354  and  _355
REMARK  141  A    between atoms: _360  and  _361
REMARK  142  A    between atoms: _363  and  _365
REMARK  143  A    between atoms: _365  and  _366
REMARK  144  A    between atoms: _365  and  _368
REMARK  145  A    between atoms: _368  and  _369
REMARK  146  A    between atoms: _374  and  _376
REMARK  147  A    between atoms: _376  and  _377
REMARK  148  A    between atoms: _376  and  _379
REMARK  149  A    between atoms: _379  and  _380
REMARK  150  A    between atoms: _380  and  _381
REMARK  151  A    between atoms: _386  and  _388
REMARK  152  A    between atoms: _388  and  _389
REMARK  153  A    between atoms: _388  and  _391
REMARK  154  A    between atoms: _391  and  _392
REMARK  155  A    between atoms: _395  and  _397
REMARK  156  A    between atoms: _397  and  _398
REMARK  157  A    between atoms: _401  and  _403
REMARK  158  A    between atoms: _403  and  _404
REMARK  159  A    between atoms: _407  and  _409
REMARK  160  A    between atoms: _409  and  _410
REMARK  161  A    between atoms: _409  and  _412
REMARK  162  A    between atoms: _412  and  _413
REMARK  163  A    between atoms: _413  and  _414
REMARK  164  A    between atoms: _416  and  _418
REMARK  165  A    between atoms: _418  and  _419
REMARK  166  A    between atoms: _418  and  _421
REMARK  167  A    between atoms: _421  and  _422
REMARK  168  A    between atoms: _422  and  _423
REMARK  169  A    between atoms: _423  and  _424
REMARK  170  A    between atoms: _433  and  _435
REMARK  171  A    between atoms: _435  and  _436
REMARK  172  A    between atoms: _435  and  _438
REMARK  173  A    between atoms: _438  and  _439
REMARK  174  A    between atoms: _439  and  _440
REMARK  175  A    between atoms: _445  and  _447
REMARK  176  A    between atoms: _447  and  _448
REMARK  177  A    between atoms: _450  and  _452
REMARK  178  A    between atoms: _452  and  _453
REMARK  179  A    between atoms: _452  and  _455
REMARK  180  A    between atoms: _455  and  _456
REMARK  181  A    between atoms: _459  and  _461
REMARK  182  A    between atoms: _461  and  _462
REMARK  183  A    between atoms: _461  and  _464
REMARK  184  A    between atoms: _464  and  _465
REMARK  185  A    between atoms: _465  and  _466
REMARK  186  A    between atoms: _469  and  _471
REMARK  187  A    between atoms: _471  and  _472
REMARK  188  A    between atoms: _471  and  _474
REMARK  189  A    between atoms: _474  and  _475
REMARK  190  A    between atoms: _475  and  _476
REMARK  191  A    between atoms: _479  and  _481
REMARK  192  A    between atoms: _481  and  _482
REMARK  193  A    between atoms: _481  and  _484
REMARK  194  A    between atoms: _484  and  _485
REMARK  195  A    between atoms: _488  and  _490
REMARK  196  A    between atoms: _490  and  _491
REMARK  197  A    between atoms: _490  and  _493
REMARK  198  A    between atoms: _493  and  _494
REMARK  199  A    between atoms: _494  and  _495
REMARK  200  A    between atoms: _495  and  _496
REMARK  201  A    between atoms: _505  and  _507
REMARK  202  A    between atoms: _507  and  _508
REMARK  203  A    between atoms: _507  and  _510
REMARK  204  A    between atoms: _510  and  _511
REMARK  205  A    between atoms: _514  and  _516
REMARK  206  A    between atoms: _516  and  _517
REMARK  207  A    between atoms: _520  and  _522
REMARK  208  A    between atoms: _522  and  _523
REMARK  209  A    between atoms: _522  and  _525
REMARK  210  A    between atoms: _528  and  _530
REMARK  211  A    between atoms: _530  and  _531
REMARK  212  A    between atoms: _530  and  _533
REMARK  213  A    between atoms: _533  and  _534
REMARK  214  A    between atoms: _537  and  _539
REMARK  215  A    between atoms: _539  and  _540
REMARK  216  A    between atoms: _539  and  _542
REMARK  217  A    between atoms: _542  and  _543
REMARK  218  A    between atoms: _548  and  _549
REMARK                            x       y       z     vdW  Elec       q    Type
REMARK                         _______ _______ _______ _____ _____    ______ ____
ROOT
ATOM      1  O   HOH     1      -7.633   3.981 -13.344  0.00  0.00    +0.000 OA
ENDROOT
TORSDOF 0
REMARK  Name = ../refined-set-2016/2hw2/2hw2_pocket.pdb
REMARK  218 active torsions:
REMARK  status: ('A' for Active; 'I' for Inactive)
REMARK    1  A    between atoms: _2  and  _3
REMARK    2  A    between atoms: _8  and  _10
REMARK    3  A    between atoms: _10  and  _11
REMARK    4  A    between atoms: _10  and  _13
REMARK    5  A    between atoms: _13  and  _14
REMARK    6  A    between atoms: _20  and  _22
REMARK    7  A    between atoms: _22  and  _23
REMARK    8  A    between atoms: _25  and  _27
REMARK    9  A    between atoms: _27  and  _28
REMARK   10  A    between atoms: _27  and  _30
REMARK   11  A    between atoms: _30  and  _31
REMARK   12  A    between atoms: _33  and  _35
REMARK   13  A    between atoms: _35  and  _36
REMARK   14  A    between atoms: _35  and  _38
REMARK   15  A    between atoms: _38  and  _39
REMARK   16  A    between atoms: _44  and  _46
REMARK   17  A    between atoms: _46  and  _47
REMARK   18  A    between atoms: _46  and  _49
REMARK   19  A    between atoms: _49  and  _50
REMARK   20  A    between atoms: _56  and  _58
REMARK   21  A    between atoms: _58  and  _59
REMARK   22  A    between atoms: _58  and  _61
REMARK   23  A    between atoms: _61  and  _62
REMARK   24  A    between atoms: _62  and  _63
REMARK   25  A    between atoms: _66  and  _68
REMARK   26  A    between atoms: _68  and  _69
REMARK   27  A    between atoms: _68  and  _71
REMARK   28  A    between atoms: _71  and  _72
REMARK   29  A    between atoms: _72  and  _73
REMARK   30  A    between atoms: _75  and  _77
REMARK   31  A    between atoms: _77  and  _78
REMARK   32  A    between atoms: _77  and  _80
REMARK   33  A    between atoms: _80  and  _81
REMARK   34  A    between atoms: _86  and  _87
REMARK   35  A    between atoms: _89  and  _91
REMARK   36  A    between atoms: _91  and  _92
REMARK   37  A    between atoms: _91  and  _94
REMARK   38  A    between atoms: _94  and  _95
REMARK   39  A    between atoms: _98  and  _100
REMARK   40  A    between atoms: _100  and  _101
REMARK   41  A    between atoms: _100  and  _103
REMARK   42  A    between atoms: _103  and  _104
REMARK   43  A    between atoms: _107  and  _109
REMARK   44  A    between atoms: _109  and  _110
REMARK   45  A    between atoms: _109  and  _112
REMARK   46  A    between atoms: _112  and  _113
REMARK   47  A    between atoms: _116  and  _118
REMARK   48  A    between atoms: _118  and  _119
REMARK   49  A    between atoms: _118  and  _121
REMARK   50  A    between atoms: _121  and  _122
REMARK   51  A    between atoms: _125  and  _127
REMARK   52  A    between atoms: _127  and  _128
REMARK   53  A    between atoms: _131  and  _133
REMARK   54  A    between atoms: _133  and  _134
REMARK   55  A    between atoms: _137  and  _139
REMARK   56  A    between atoms: _139  and  _140
REMARK   57  A    between atoms: _139  and  _142
REMARK   58  A    between atoms: _145  and  _147
REMARK   59  A    between atoms: _147  and  _148
REMARK   60  A    between atoms: _147  and  _150
REMARK   61  A    between atoms: _150  and  _151
REMARK   62  A    between atoms: _161  and  _163
REMARK   63  A    between atoms: _163  and  _164
REMARK   64  A    between atoms: _166  and  _168
REMARK   65  A    between atoms: _168  and  _169
REMARK   66  A    between atoms: _172  and  _174
REMARK   67  A    between atoms: _174  and  _175
REMARK   68  A    between atoms: _174  and  _177
REMARK   69  A    between atoms: _177  and  _178
REMARK   70  A    between atoms: _178  and  _179
REMARK   71  A    between atoms: _182  and  _184
REMARK   72  A    between atoms: _184  and  _185
REMARK   73  A    between atoms: _184  and  _187
REMARK   74  A    between atoms: _187  and  _188
REMARK   75  A    between atoms: _191  and  _193
REMARK   76  A    between atoms: _193  and  _194
REMARK   77  A    between atoms: _197  and  _199
REMARK   78  A    between atoms: _199  and  _200
REMARK   79  A    between atoms: _199  and  _202
REMARK   80  A    between atoms: _202  and  _203
REMARK   81  A    between atoms: _207  and  _208
REMARK   82  A    between atoms: _213  and  _215
REMARK   83  A    between atoms: _215  and  _216
REMARK   84  A    between atoms: _215  and  _218
REMARK   85  A    between atoms: _218  and  _219
REMARK   86  A    between atoms: _224  and  _226
REMARK   87  A    between atoms: _226  and  _227
REMARK   88  A    between atoms: _226  and  _229
REMARK   89  A    between atoms: _232  and  _234
REMARK   90  A    between atoms: _234  and  _235
REMARK   91  A    between atoms: _234  and  _237
REMARK   92  A    between atoms: _237  and  _238
REMARK   93  A    between atoms: _241  and  _243
REMARK   94  A    between atoms: _243  and  _244
REMARK   95  A    between atoms: _243  and  _246
REMARK   96  A    between atoms: _246  and  _247
REMARK   97  A    between atoms: _250  and  _252
REMARK   98  A    between atoms: _252  and  _253
REMARK   99  A    between atoms: _252  and  _255
REMARK  100  A    between atoms: _255  and  _256
REMARK  101  A    between atoms: _256  and  _257
REMARK  102  A    between atoms: _257  and  _258
REMARK  103  A    between atoms: _258  and  _259
REMARK  104  A    between atoms: _263  and  _265
REMARK  105  A    between atoms: _265  and  _266
REMARK  106  A    between atoms: _265  and  _268
REMARK  107  A    between atoms: _268  and  _269
REMARK  108  A    between atoms: _269  and  _270
REMARK  109  A    between atoms: _270  and  _271
REMARK  110  A    between atoms: _271  and  _272
REMARK  111  A    between atoms: _276  and  _278
REMARK  112  A    between atoms: _278  and  _279
REMARK  113  A    between atoms: _278  and  _281
REMARK  114  A    between atoms: _281  and  _282
REMARK  115  A    between atoms: _286  and  _287
REMARK  116  A    between atoms: _292  and  _294
REMARK  117  A    between atoms: _294  and  _295
REMARK  118  A    between atoms: _297  and  _299
REMARK  119  A    between atoms: _299  and  _300
REMARK  120  A    between atoms: _299  and  _302
REMARK  121  A    between atoms: _302  and  _303
REMARK  122  A    between atoms: _309  and  _310
REMARK  123  A    between atoms: _315  and  _317
REMARK  124  A    between atoms: _317  and  _318
REMARK  125  A    between atoms: _317  and  _320
REMARK  126  A    between atoms: _320  and  _321
REMARK  127  A    between atoms: _324  and  _326
REMARK  128  A    between atoms: _326  and  _327
REMARK  129  A    between atoms: _326  and  _329
REMARK  130  A    between atoms: _329  and  _330
REMARK  131  A    between atoms: _330  and  _331
REMARK  132  A    between atoms: _331  and  _332
REMARK  133  A    between atoms: _341  and  _343
REMARK  134  A    between atoms: _343  and  _344
REMARK  135  A    between atoms: _343  and  _346
REMARK  136  A    between atoms: _346  and  _347
REMARK  137  A    between atoms: _349  and  _351
REMARK  138  A    between atoms: _351  and  _352
REMARK  139  A    between atoms: _351  and  _354
REMARK  140  A    between atoms: _354  and  _355
REMARK  141  A    between atoms: _360  and  _361
REMARK  142  A    between atoms: _363  and  _365
REMARK  143  A    between atoms: _365  and  _366
REMARK  144  A    between atoms: _365  and  _368
REMARK  145  A    between atoms: _368  and  _369
REMARK  146  A    between atoms: _374  and  _376
REMARK  147  A    between atoms: _376  and  _377
REMARK  148  A    between atoms: _376  and  _379
REMARK  149  A    between atoms: _379  and  _380
REMARK  150  A    between atoms: _380  and  _381
REMARK  151  A    between atoms: _386  and  _388
REMARK  152  A    between atoms: _388  and  _389
REMARK  153  A    between atoms: _388  and  _391
REMARK  154  A    between atoms: _391  and  _392
REMARK  155  A    between atoms: _395  and  _397
REMARK  156  A    between atoms: _397  and  _398
REMARK  157  A    between atoms: _401  and  _403
REMARK  158  A    between atoms: _403  and  _404
REMARK  159  A    between atoms: _407  and  _409
REMARK  160  A    between atoms: _409  and  _410
REMARK  161  A    between atoms: _409  and  _412
REMARK  162  A    between atoms: _412  and  _413
REMARK  163  A    between atoms: _413  and  _414
REMARK  164  A    between atoms: _416  and  _418
REMARK  165  A    between atoms: _418  and  _419
REMARK  166  A    between atoms: _418  and  _421
REMARK  167  A    between atoms: _421  and  _422
REMARK  168  A    between atoms: _422  and  _423
REMARK  169  A    between atoms: _423  and  _424
REMARK  170  A    between atoms: _433  and  _435
REMARK  171  A    between atoms: _435  and  _436
REMARK  172  A    between atoms: _435  and  _438
REMARK  173  A    between atoms: _438  and  _439
REMARK  174  A    between atoms: _439  and  _440
REMARK  175  A    between atoms: _445  and  _447
REMARK  176  A    between atoms: _447  and  _448
REMARK  177  A    between atoms: _450  and  _452
REMARK  178  A    between atoms: _452  and  _453
REMARK  179  A    between atoms: _452  and  _455
REMARK  180  A    between atoms: _455  and  _456
REMARK  181  A    between atoms: _459  and  _461
REMARK  182  A    between atoms: _461  and  _462
REMARK  183  A    between atoms: _461  and  _464
REMARK  184  A    between atoms: _464  and  _465
REMARK  185  A    between atoms: _465  and  _466
REMARK  186  A    between atoms: _469  and  _471
REMARK  187  A    between atoms: _471  and  _472
REMARK  188  A    between atoms: _471  and  _474
REMARK  189  A    between atoms: _474  and  _475
REMARK  190  A    between atoms: _475  and  _476
REMARK  191  A    between atoms: _479  and  _481
REMARK  192  A    between atoms: _481  and  _482
REMARK  193  A    between atoms: _481  and  _484
REMARK  194  A    between atoms: _484  and  _485
REMARK  195  A    between atoms: _488  and  _490
REMARK  196  A    between atoms: _490  and  _491
REMARK  197  A    between atoms: _490  and  _493
REMARK  198  A    between atoms: _493  and  _494
REMARK  199  A    between atoms: _494  and  _495
REMARK  200  A    between atoms: _495  and  _496
REMARK  201  A    between atoms: _505  and  _507
REMARK  202  A    between atoms: _507  and  _508
REMARK  203  A    between atoms: _507  and  _510
REMARK  204  A    between atoms: _510  and  _511
REMARK  205  A    between atoms: _514  and  _516
REMARK  206  A    between atoms: _516  and  _517
REMARK  207  A    between atoms: _520  and  _522
REMARK  208  A    between atoms: _522  and  _523
REMARK  209  A    between atoms: _522  and  _525
REMARK  210  A    between atoms: _528  and  _530
REMARK  211  A    between atoms: _530  and  _531
REMARK  212  A    between atoms: _530  and  _533
REMARK  213  A    between atoms: _533  and  _534
REMARK  214  A    between atoms: _537  and  _539
REMARK  215  A    between atoms: _539  and  _540
REMARK  216  A    between atoms: _539  and  _542
REMARK  217  A    between atoms: _542  and  _543
REMARK  218  A    between atoms: _548  and  _549
REMARK                            x       y       z     vdW  Elec       q    Type
REMARK                         _______ _______ _______ _____ _____    ______ ____
ROOT
ATOM      1  O   HOH     1     -20.638   3.136  -7.606  0.00  0.00    +0.000 OA
ENDROOT
TORSDOF 0
REMARK  Name = ../refined-set-2016/2hw2/2hw2_pocket.pdb
REMARK  218 active torsions:
REMARK  status: ('A' for Active; 'I' for Inactive)
REMARK    1  A    between atoms: _2  and  _3
REMARK    2  A    between atoms: _8  and  _10
REMARK    3  A    between atoms: _10  and  _11
REMARK    4  A    between atoms: _10  and  _13
REMARK    5  A    between atoms: _13  and  _14
REMARK    6  A    between atoms: _20  and  _22
REMARK    7  A    between atoms: _22  and  _23
REMARK    8  A    between atoms: _25  and  _27
REMARK    9  A    between atoms: _27  and  _28
REMARK   10  A    between atoms: _27  and  _30
REMARK   11  A    between atoms: _30  and  _31
REMARK   12  A    between atoms: _33  and  _35
REMARK   13  A    between atoms: _35  and  _36
REMARK   14  A    between atoms: _35  and  _38
REMARK   15  A    between atoms: _38  and  _39
REMARK   16  A    between atoms: _44  and  _46
REMARK   17  A    between atoms: _46  and  _47
REMARK   18  A    between atoms: _46  and  _49
REMARK   19  A    between atoms: _49  and  _50
REMARK   20  A    between atoms: _56  and  _58
REMARK   21  A    between atoms: _58  and  _59
REMARK   22  A    between atoms: _58  and  _61
REMARK   23  A    between atoms: _61  and  _62
REMARK   24  A    between atoms: _62  and  _63
REMARK   25  A    between atoms: _66  and  _68
REMARK   26  A    between atoms: _68  and  _69
REMARK   27  A    between atoms: _68  and  _71
REMARK   28  A    between atoms: _71  and  _72
REMARK   29  A    between atoms: _72  and  _73
REMARK   30  A    between atoms: _75  and  _77
REMARK   31  A    between atoms: _77  and  _78
REMARK   32  A    between atoms: _77  and  _80
REMARK   33  A    between atoms: _80  and  _81
REMARK   34  A    between atoms: _86  and  _87
REMARK   35  A    between atoms: _89  and  _91
REMARK   36  A    between atoms: _91  and  _92
REMARK   37  A    between atoms: _91  and  _94
REMARK   38  A    between atoms: _94  and  _95
REMARK   39  A    between atoms: _98  and  _100
REMARK   40  A    between atoms: _100  and  _101
REMARK   41  A    between atoms: _100  and  _103
REMARK   42  A    between atoms: _103  and  _104
REMARK   43  A    between atoms: _107  and  _109
REMARK   44  A    between atoms: _109  and  _110
REMARK   45  A    between atoms: _109  and  _112
REMARK   46  A    between atoms: _112  and  _113
REMARK   47  A    between atoms: _116  and  _118
REMARK   48  A    between atoms: _118  and  _119
REMARK   49  A    between atoms: _118  and  _121
REMARK   50  A    between atoms: _121  and  _122
REMARK   51  A    between atoms: _125  and  _127
REMARK   52  A    between atoms: _127  and  _128
REMARK   53  A    between atoms: _131  and  _133
REMARK   54  A    between atoms: _133  and  _134
REMARK   55  A    between atoms: _137  and  _139
REMARK   56  A    between atoms: _139  and  _140
REMARK   57  A    between atoms: _139  and  _142
REMARK   58  A    between atoms: _145  and  _147
REMARK   59  A    between atoms: _147  and  _148
REMARK   60  A    between atoms: _147  and  _150
REMARK   61  A    between atoms: _150  and  _151
REMARK   62  A    between atoms: _161  and  _163
REMARK   63  A    between atoms: _163  and  _164
REMARK   64  A    between atoms: _166  and  _168
REMARK   65  A    between atoms: _168  and  _169
REMARK   66  A    between atoms: _172  and  _174
REMARK   67  A    between atoms: _174  and  _175
REMARK   68  A    between atoms: _174  and  _177
REMARK   69  A    between atoms: _177  and  _178
REMARK   70  A    between atoms: _178  and  _179
REMARK   71  A    between atoms: _182  and  _184
REMARK   72  A    between atoms: _184  and  _185
REMARK   73  A    between atoms: _184  and  _187
REMARK   74  A    between atoms: _187  and  _188
REMARK   75  A    between atoms: _191  and  _193
REMARK   76  A    between atoms: _193  and  _194
REMARK   77  A    between atoms: _197  and  _199
REMARK   78  A    between atoms: _199  and  _200
REMARK   79  A    between atoms: _199  and  _202
REMARK   80  A    between atoms: _202  and  _203
REMARK   81  A    between atoms: _207  and  _208
REMARK   82  A    between atoms: _213  and  _215
REMARK   83  A    between atoms: _215  and  _216
REMARK   84  A    between atoms: _215  and  _218
REMARK   85  A    between atoms: _218  and  _219
REMARK   86  A    between atoms: _224  and  _226
REMARK   87  A    between atoms: _226  and  _227
REMARK   88  A    between atoms: _226  and  _229
REMARK   89  A    between atoms: _232  and  _234
REMARK   90  A    between atoms: _234  and  _235
REMARK   91  A    between atoms: _234  and  _237
REMARK   92  A    between atoms: _237  and  _238
REMARK   93  A    between atoms: _241  and  _243
REMARK   94  A    between atoms: _243  and  _244
REMARK   95  A    between atoms: _243  and  _246
REMARK   96  A    between atoms: _246  and  _247
REMARK   97  A    between atoms: _250  and  _252
REMARK   98  A    between atoms: _252  and  _253
REMARK   99  A    between atoms: _252  and  _255
REMARK  100  A    between atoms: _255  and  _256
REMARK  101  A    between atoms: _256  and  _257
REMARK  102  A    between atoms: _257  and  _258
REMARK  103  A    between atoms: _258  and  _259
REMARK  104  A    between atoms: _263  and  _265
REMARK  105  A    between atoms: _265  and  _266
REMARK  106  A    between atoms: _265  and  _268
REMARK  107  A    between atoms: _268  and  _269
REMARK  108  A    between atoms: _269  and  _270
REMARK  109  A    between atoms: _270  and  _271
REMARK  110  A    between atoms: _271  and  _272
REMARK  111  A    between atoms: _276  and  _278
REMARK  112  A    between atoms: _278  and  _279
REMARK  113  A    between atoms: _278  and  _281
REMARK  114  A    between atoms: _281  and  _282
REMARK  115  A    between atoms: _286  and  _287
REMARK  116  A    between atoms: _292  and  _294
REMARK  117  A    between atoms: _294  and  _295
REMARK  118  A    between atoms: _297  and  _299
REMARK  119  A    between atoms: _299  and  _300
REMARK  120  A    between atoms: _299  and  _302
REMARK  121  A    between atoms: _302  and  _303
REMARK  122  A    between atoms: _309  and  _310
REMARK  123  A    between atoms: _315  and  _317
REMARK  124  A    between atoms: _317  and  _318
REMARK  125  A    between atoms: _317  and  _320
REMARK  126  A    between atoms: _320  and  _321
REMARK  127  A    between atoms: _324  and  _326
REMARK  128  A    between atoms: _326  and  _327
REMARK  129  A    between atoms: _326  and  _329
REMARK  130  A    between atoms: _329  and  _330
REMARK  131  A    between atoms: _330  and  _331
REMARK  132  A    between atoms: _331  and  _332
REMARK  133  A    between atoms: _341  and  _343
REMARK  134  A    between atoms: _343  and  _344
REMARK  135  A    between atoms: _343  and  _346
REMARK  136  A    between atoms: _346  and  _347
REMARK  137  A    between atoms: _349  and  _351
REMARK  138  A    between atoms: _351  and  _352
REMARK  139  A    between atoms: _351  and  _354
REMARK  140  A    between atoms: _354  and  _355
REMARK  141  A    between atoms: _360  and  _361
REMARK  142  A    between atoms: _363  and  _365
REMARK  143  A    between atoms: _365  and  _366
REMARK  144  A    between atoms: _365  and  _368
REMARK  145  A    between atoms: _368  and  _369
REMARK  146  A    between atoms: _374  and  _376
REMARK  147  A    between atoms: _376  and  _377
REMARK  148  A    between atoms: _376  and  _379
REMARK  149  A    between atoms: _379  and  _380
REMARK  150  A    between atoms: _380  and  _381
REMARK  151  A    between atoms: _386  and  _388
REMARK  152  A    between atoms: _388  and  _389
REMARK  153  A    between atoms: _388  and  _391
REMARK  154  A    between atoms: _391  and  _392
REMARK  155  A    between atoms: _395  and  _397
REMARK  156  A    between atoms: _397  and  _398
REMARK  157  A    between atoms: _401  and  _403
REMARK  158  A    between atoms: _403  and  _404
REMARK  159  A    between atoms: _407  and  _409
REMARK  160  A    between atoms: _409  and  _410
REMARK  161  A    between atoms: _409  and  _412
REMARK  162  A    between atoms: _412  and  _413
REMARK  163  A    between atoms: _413  and  _414
REMARK  164  A    between atoms: _416  and  _418
REMARK  165  A    between atoms: _418  and  _419
REMARK  166  A    between atoms: _418  and  _421
REMARK  167  A    between atoms: _421  and  _422
REMARK  168  A    between atoms: _422  and  _423
REMARK  169  A    between atoms: _423  and  _424
REMARK  170  A    between atoms: _433  and  _435
REMARK  171  A    between atoms: _435  and  _436
REMARK  172  A    between atoms: _435  and  _438
REMARK  173  A    between atoms: _438  and  _439
REMARK  174  A    between atoms: _439  and  _440
REMARK  175  A    between atoms: _445  and  _447
REMARK  176  A    between atoms: _447  and  _448
REMARK  177  A    between atoms: _450  and  _452
REMARK  178  A    between atoms: _452  and  _453
REMARK  179  A    between atoms: _452  and  _455
REMARK  180  A    between atoms: _455  and  _456
REMARK  181  A    between atoms: _459  and  _461
REMARK  182  A    between atoms: _461  and  _462
REMARK  183  A    between atoms: _461  and  _464
REMARK  184  A    between atoms: _464  and  _465
REMARK  185  A    between atoms: _465  and  _466
REMARK  186  A    between atoms: _469  and  _471
REMARK  187  A    between atoms: _471  and  _472
REMARK  188  A    between atoms: _471  and  _474
REMARK  189  A    between atoms: _474  and  _475
REMARK  190  A    between atoms: _475  and  _476
REMARK  191  A    between atoms: _479  and  _481
REMARK  192  A    between atoms: _481  and  _482
REMARK  193  A    between atoms: _481  and  _484
REMARK  194  A    between atoms: _484  and  _485
REMARK  195  A    between atoms: _488  and  _490
REMARK  196  A    between atoms: _490  and  _491
REMARK  197  A    between atoms: _490  and  _493
REMARK  198  A    between atoms: _493  and  _494
REMARK  199  A    between atoms: _494  and  _495
REMARK  200  A    between atoms: _495  and  _496
REMARK  201  A    between atoms: _505  and  _507
REMARK  202  A    between atoms: _507  and  _508
REMARK  203  A    between atoms: _507  and  _510
REMARK  204  A    between atoms: _510  and  _511
REMARK  205  A    between atoms: _514  and  _516
REMARK  206  A    between atoms: _516  and  _517
REMARK  207  A    between atoms: _520  and  _522
REMARK  208  A    between atoms: _522  and  _523
REMARK  209  A    between atoms: _522  and  _525
REMARK  210  A    between atoms: _528  and  _530
REMARK  211  A    between atoms: _530  and  _531
REMARK  212  A    between atoms: _530  and  _533
REMARK  213  A    between atoms: _533  and  _534
REMARK  214  A    between atoms: _537  and  _539
REMARK  215  A    between atoms: _539  and  _540
REMARK  216  A    between atoms: _539  and  _542
REMARK  217  A    between atoms: _542  and  _543
REMARK  218  A    between atoms: _548  and  _549
REMARK                            x       y       z     vdW  Elec       q    Type
REMARK                         _______ _______ _______ _____ _____    ______ ____
ROOT
ATOM      1  O   HOH     1     -14.313   0.811 -13.428  0.00  0.00    +0.000 OA
ENDROOT
TORSDOF 0
REMARK  Name = ../refined-set-2016/2hw2/2hw2_pocket.pdb
REMARK  218 active torsions:
REMARK  status: ('A' for Active; 'I' for Inactive)
REMARK    1  A    between atoms: _2  and  _3
REMARK    2  A    between atoms: _8  and  _10
REMARK    3  A    between atoms: _10  and  _11
REMARK    4  A    between atoms: _10  and  _13
REMARK    5  A    between atoms: _13  and  _14
REMARK    6  A    between atoms: _20  and  _22
REMARK    7  A    between atoms: _22  and  _23
REMARK    8  A    between atoms: _25  and  _27
REMARK    9  A    between atoms: _27  and  _28
REMARK   10  A    between atoms: _27  and  _30
REMARK   11  A    between atoms: _30  and  _31
REMARK   12  A    between atoms: _33  and  _35
REMARK   13  A    between atoms: _35  and  _36
REMARK   14  A    between atoms: _35  and  _38
REMARK   15  A    between atoms: _38  and  _39
REMARK   16  A    between atoms: _44  and  _46
REMARK   17  A    between atoms: _46  and  _47
REMARK   18  A    between atoms: _46  and  _49
REMARK   19  A    between atoms: _49  and  _50
REMARK   20  A    between atoms: _56  and  _58
REMARK   21  A    between atoms: _58  and  _59
REMARK   22  A    between atoms: _58  and  _61
REMARK   23  A    between atoms: _61  and  _62
REMARK   24  A    between atoms: _62  and  _63
REMARK   25  A    between atoms: _66  and  _68
REMARK   26  A    between atoms: _68  and  _69
REMARK   27  A    between atoms: _68  and  _71
REMARK   28  A    between atoms: _71  and  _72
REMARK   29  A    between atoms: _72  and  _73
REMARK   30  A    between atoms: _75  and  _77
REMARK   31  A    between atoms: _77  and  _78
REMARK   32  A    between atoms: _77  and  _80
REMARK   33  A    between atoms: _80  and  _81
REMARK   34  A    between atoms: _86  and  _87
REMARK   35  A    between atoms: _89  and  _91
REMARK   36  A    between atoms: _91  and  _92
REMARK   37  A    between atoms: _91  and  _94
REMARK   38  A    between atoms: _94  and  _95
REMARK   39  A    between atoms: _98  and  _100
REMARK   40  A    between atoms: _100  and  _101
REMARK   41  A    between atoms: _100  and  _103
REMARK   42  A    between atoms: _103  and  _104
REMARK   43  A    between atoms: _107  and  _109
REMARK   44  A    between atoms: _109  and  _110
REMARK   45  A    between atoms: _109  and  _112
REMARK   46  A    between atoms: _112  and  _113
REMARK   47  A    between atoms: _116  and  _118
REMARK   48  A    between atoms: _118  and  _119
REMARK   49  A    between atoms: _118  and  _121
REMARK   50  A    between atoms: _121  and  _122
REMARK   51  A    between atoms: _125  and  _127
REMARK   52  A    between atoms: _127  and  _128
REMARK   53  A    between atoms: _131  and  _133
REMARK   54  A    between atoms: _133  and  _134
REMARK   55  A    between atoms: _137  and  _139
REMARK   56  A    between atoms: _139  and  _140
REMARK   57  A    between atoms: _139  and  _142
REMARK   58  A    between atoms: _145  and  _147
REMARK   59  A    between atoms: _147  and  _148
REMARK   60  A    between atoms: _147  and  _150
REMARK   61  A    between atoms: _150  and  _151
REMARK   62  A    between atoms: _161  and  _163
REMARK   63  A    between atoms: _163  and  _164
REMARK   64  A    between atoms: _166  and  _168
REMARK   65  A    between atoms: _168  and  _169
REMARK   66  A    between atoms: _172  and  _174
REMARK   67  A    between atoms: _174  and  _175
REMARK   68  A    between atoms: _174  and  _177
REMARK   69  A    between atoms: _177  and  _178
REMARK   70  A    between atoms: _178  and  _179
REMARK   71  A    between atoms: _182  and  _184
REMARK   72  A    between atoms: _184  and  _185
REMARK   73  A    between atoms: _184  and  _187
REMARK   74  A    between atoms: _187  and  _188
REMARK   75  A    between atoms: _191  and  _193
REMARK   76  A    between atoms: _193  and  _194
REMARK   77  A    between atoms: _197  and  _199
REMARK   78  A    between atoms: _199  and  _200
REMARK   79  A    between atoms: _199  and  _202
REMARK   80  A    between atoms: _202  and  _203
REMARK   81  A    between atoms: _207  and  _208
REMARK   82  A    between atoms: _213  and  _215
REMARK   83  A    between atoms: _215  and  _216
REMARK   84  A    between atoms: _215  and  _218
REMARK   85  A    between atoms: _218  and  _219
REMARK   86  A    between atoms: _224  and  _226
REMARK   87  A    between atoms: _226  and  _227
REMARK   88  A    between atoms: _226  and  _229
REMARK   89  A    between atoms: _232  and  _234
REMARK   90  A    between atoms: _234  and  _235
REMARK   91  A    between atoms: _234  and  _237
REMARK   92  A    between atoms: _237  and  _238
REMARK   93  A    between atoms: _241  and  _243
REMARK   94  A    between atoms: _243  and  _244
REMARK   95  A    between atoms: _243  and  _246
REMARK   96  A    between atoms: _246  and  _247
REMARK   97  A    between atoms: _250  and  _252
REMARK   98  A    between atoms: _252  and  _253
REMARK   99  A    between atoms: _252  and  _255
REMARK  100  A    between atoms: _255  and  _256
REMARK  101  A    between atoms: _256  and  _257
REMARK  102  A    between atoms: _257  and  _258
REMARK  103  A    between atoms: _258  and  _259
REMARK  104  A    between atoms: _263  and  _265
REMARK  105  A    between atoms: _265  and  _266
REMARK  106  A    between atoms: _265  and  _268
REMARK  107  A    between atoms: _268  and  _269
REMARK  108  A    between atoms: _269  and  _270
REMARK  109  A    between atoms: _270  and  _271
REMARK  110  A    between atoms: _271  and  _272
REMARK  111  A    between atoms: _276  and  _278
REMARK  112  A    between atoms: _278  and  _279
REMARK  113  A    between atoms: _278  and  _281
REMARK  114  A    between atoms: _281  and  _282
REMARK  115  A    between atoms: _286  and  _287
REMARK  116  A    between atoms: _292  and  _294
REMARK  117  A    between atoms: _294  and  _295
REMARK  118  A    between atoms: _297  and  _299
REMARK  119  A    between atoms: _299  and  _300
REMARK  120  A    between atoms: _299  and  _302
REMARK  121  A    between atoms: _302  and  _303
REMARK  122  A    between atoms: _309  and  _310
REMARK  123  A    between atoms: _315  and  _317
REMARK  124  A    between atoms: _317  and  _318
REMARK  125  A    between atoms: _317  and  _320
REMARK  126  A    between atoms: _320  and  _321
REMARK  127  A    between atoms: _324  and  _326
REMARK  128  A    between atoms: _326  and  _327
REMARK  129  A    between atoms: _326  and  _329
REMARK  130  A    between atoms: _329  and  _330
REMARK  131  A    between atoms: _330  and  _331
REMARK  132  A    between atoms: _331  and  _332
REMARK  133  A    between atoms: _341  and  _343
REMARK  134  A    between atoms: _343  and  _344
REMARK  135  A    between atoms: _343  and  _346
REMARK  136  A    between atoms: _346  and  _347
REMARK  137  A    between atoms: _349  and  _351
REMARK  138  A    between atoms: _351  and  _352
REMARK  139  A    between atoms: _351  and  _354
REMARK  140  A    between atoms: _354  and  _355
REMARK  141  A    between atoms: _360  and  _361
REMARK  142  A    between atoms: _363  and  _365
REMARK  143  A    between atoms: _365  and  _366
REMARK  144  A    between atoms: _365  and  _368
REMARK  145  A    between atoms: _368  and  _369
REMARK  146  A    between atoms: _374  and  _376
REMARK  147  A    between atoms: _376  and  _377
REMARK  148  A    between atoms: _376  and  _379
REMARK  149  A    between atoms: _379  and  _380
REMARK  150  A    between atoms: _380  and  _381
REMARK  151  A    between atoms: _386  and  _388
REMARK  152  A    between atoms: _388  and  _389
REMARK  153  A    between atoms: _388  and  _391
REMARK  154  A    between atoms: _391  and  _392
REMARK  155  A    between atoms: _395  and  _397
REMARK  156  A    between atoms: _397  and  _398
REMARK  157  A    between atoms: _401  and  _403
REMARK  158  A    between atoms: _403  and  _404
REMARK  159  A    between atoms: _407  and  _409
REMARK  160  A    between atoms: _409  and  _410
REMARK  161  A    between atoms: _409  and  _412
REMARK  162  A    between atoms: _412  and  _413
REMARK  163  A    between atoms: _413  and  _414
REMARK  164  A    between atoms: _416  and  _418
REMARK  165  A    between atoms: _418  and  _419
REMARK  166  A    between atoms: _418  and  _421
REMARK  167  A    between atoms: _421  and  _422
REMARK  168  A    between atoms: _422  and  _423
REMARK  169  A    between atoms: _423  and  _424
REMARK  170  A    between atoms: _433  and  _435
REMARK  171  A    between atoms: _435  and  _436
REMARK  172  A    between atoms: _435  and  _438
REMARK  173  A    between atoms: _438  and  _439
REMARK  174  A    between atoms: _439  and  _440
REMARK  175  A    between atoms: _445  and  _447
REMARK  176  A    between atoms: _447  and  _448
REMARK  177  A    between atoms: _450  and  _452
REMARK  178  A    between atoms: _452  and  _453
REMARK  179  A    between atoms: _452  and  _455
REMARK  180  A    between atoms: _455  and  _456
REMARK  181  A    between atoms: _459  and  _461
REMARK  182  A    between atoms: _461  and  _462
REMARK  183  A    between atoms: _461  and  _464
REMARK  184  A    between atoms: _464  and  _465
REMARK  185  A    between atoms: _465  and  _466
REMARK  186  A    between atoms: _469  and  _471
REMARK  187  A    between atoms: _471  and  _472
REMARK  188  A    between atoms: _471  and  _474
REMARK  189  A    between atoms: _474  and  _475
REMARK  190  A    between atoms: _475  and  _476
REMARK  191  A    between atoms: _479  and  _481
REMARK  192  A    between atoms: _481  and  _482
REMARK  193  A    between atoms: _481  and  _484
REMARK  194  A    between atoms: _484  and  _485
REMARK  195  A    between atoms: _488  and  _490
REMARK  196  A    between atoms: _490  and  _491
REMARK  197  A    between atoms: _490  and  _493
REMARK  198  A    between atoms: _493  and  _494
REMARK  199  A    between atoms: _494  and  _495
REMARK  200  A    between atoms: _495  and  _496
REMARK  201  A    between atoms: _505  and  _507
REMARK  202  A    between atoms: _507  and  _508
REMARK  203  A    between atoms: _507  and  _510
REMARK  204  A    between atoms: _510  and  _511
REMARK  205  A    between atoms: _514  and  _516
REMARK  206  A    between atoms: _516  and  _517
REMARK  207  A    between atoms: _520  and  _522
REMARK  208  A    between atoms: _522  and  _523
REMARK  209  A    between atoms: _522  and  _525
REMARK  210  A    between atoms: _528  and  _530
REMARK  211  A    between atoms: _530  and  _531
REMARK  212  A    between atoms: _530  and  _533
REMARK  213  A    between atoms: _533  and  _534
REMARK  214  A    between atoms: _537  and  _539
REMARK  215  A    between atoms: _539  and  _540
REMARK  216  A    between atoms: _539  and  _542
REMARK  217  A    between atoms: _542  and  _543
REMARK  218  A    between atoms: _548  and  _549
REMARK                            x       y       z     vdW  Elec       q    Type
REMARK                         _______ _______ _______ _____ _____    ______ ____
ROOT
ATOM      1  O   HOH     1     -18.191   3.502 -11.230  0.00  0.00    +0.000 OA
ENDROOT
TORSDOF 0
REMARK  Name = ../refined-set-2016/2hw2/2hw2_pocket.pdb
REMARK  218 active torsions:
REMARK  status: ('A' for Active; 'I' for Inactive)
REMARK    1  A    between atoms: _2  and  _3
REMARK    2  A    between atoms: _8  and  _10
REMARK    3  A    between atoms: _10  and  _11
REMARK    4  A    between atoms: _10  and  _13
REMARK    5  A    between atoms: _13  and  _14
REMARK    6  A    between atoms: _20  and  _22
REMARK    7  A    between atoms: _22  and  _23
REMARK    8  A    between atoms: _25  and  _27
REMARK    9  A    between atoms: _27  and  _28
REMARK   10  A    between atoms: _27  and  _30
REMARK   11  A    between atoms: _30  and  _31
REMARK   12  A    between atoms: _33  and  _35
REMARK   13  A    between atoms: _35  and  _36
REMARK   14  A    between atoms: _35  and  _38
REMARK   15  A    between atoms: _38  and  _39
REMARK   16  A    between atoms: _44  and  _46
REMARK   17  A    between atoms: _46  and  _47
REMARK   18  A    between atoms: _46  and  _49
REMARK   19  A    between atoms: _49  and  _50
REMARK   20  A    between atoms: _56  and  _58
REMARK   21  A    between atoms: _58  and  _59
REMARK   22  A    between atoms: _58  and  _61
REMARK   23  A    between atoms: _61  and  _62
REMARK   24  A    between atoms: _62  and  _63
REMARK   25  A    between atoms: _66  and  _68
REMARK   26  A    between atoms: _68  and  _69
REMARK   27  A    between atoms: _68  and  _71
REMARK   28  A    between atoms: _71  and  _72
REMARK   29  A    between atoms: _72  and  _73
REMARK   30  A    between atoms: _75  and  _77
REMARK   31  A    between atoms: _77  and  _78
REMARK   32  A    between atoms: _77  and  _80
REMARK   33  A    between atoms: _80  and  _81
REMARK   34  A    between atoms: _86  and  _87
REMARK   35  A    between atoms: _89  and  _91
REMARK   36  A    between atoms: _91  and  _92
REMARK   37  A    between atoms: _91  and  _94
REMARK   38  A    between atoms: _94  and  _95
REMARK   39  A    between atoms: _98  and  _100
REMARK   40  A    between atoms: _100  and  _101
REMARK   41  A    between atoms: _100  and  _103
REMARK   42  A    between atoms: _103  and  _104
REMARK   43  A    between atoms: _107  and  _109
REMARK   44  A    between atoms: _109  and  _110
REMARK   45  A    between atoms: _109  and  _112
REMARK   46  A    between atoms: _112  and  _113
REMARK   47  A    between atoms: _116  and  _118
REMARK   48  A    between atoms: _118  and  _119
REMARK   49  A    between atoms: _118  and  _121
REMARK   50  A    between atoms: _121  and  _122
REMARK   51  A    between atoms: _125  and  _127
REMARK   52  A    between atoms: _127  and  _128
REMARK   53  A    between atoms: _131  and  _133
REMARK   54  A    between atoms: _133  and  _134
REMARK   55  A    between atoms: _137  and  _139
REMARK   56  A    between atoms: _139  and  _140
REMARK   57  A    between atoms: _139  and  _142
REMARK   58  A    between atoms: _145  and  _147
REMARK   59  A    between atoms: _147  and  _148
REMARK   60  A    between atoms: _147  and  _150
REMARK   61  A    between atoms: _150  and  _151
REMARK   62  A    between atoms: _161  and  _163
REMARK   63  A    between atoms: _163  and  _164
REMARK   64  A    between atoms: _166  and  _168
REMARK   65  A    between atoms: _168  and  _169
REMARK   66  A    between atoms: _172  and  _174
REMARK   67  A    between atoms: _174  and  _175
REMARK   68  A    between atoms: _174  and  _177
REMARK   69  A    between atoms: _177  and  _178
REMARK   70  A    between atoms: _178  and  _179
REMARK   71  A    between atoms: _182  and  _184
REMARK   72  A    between atoms: _184  and  _185
REMARK   73  A    between atoms: _184  and  _187
REMARK   74  A    between atoms: _187  and  _188
REMARK   75  A    between atoms: _191  and  _193
REMARK   76  A    between atoms: _193  and  _194
REMARK   77  A    between atoms: _197  and  _199
REMARK   78  A    between atoms: _199  and  _200
REMARK   79  A    between atoms: _199  and  _202
REMARK   80  A    between atoms: _202  and  _203
REMARK   81  A    between atoms: _207  and  _208
REMARK   82  A    between atoms: _213  and  _215
REMARK   83  A    between atoms: _215  and  _216
REMARK   84  A    between atoms: _215  and  _218
REMARK   85  A    between atoms: _218  and  _219
REMARK   86  A    between atoms: _224  and  _226
REMARK   87  A    between atoms: _226  and  _227
REMARK   88  A    between atoms: _226  and  _229
REMARK   89  A    between atoms: _232  and  _234
REMARK   90  A    between atoms: _234  and  _235
REMARK   91  A    between atoms: _234  and  _237
REMARK   92  A    between atoms: _237  and  _238
REMARK   93  A    between atoms: _241  and  _243
REMARK   94  A    between atoms: _243  and  _244
REMARK   95  A    between atoms: _243  and  _246
REMARK   96  A    between atoms: _246  and  _247
REMARK   97  A    between atoms: _250  and  _252
REMARK   98  A    between atoms: _252  and  _253
REMARK   99  A    between atoms: _252  and  _255
REMARK  100  A    between atoms: _255  and  _256
REMARK  101  A    between atoms: _256  and  _257
REMARK  102  A    between atoms: _257  and  _258
REMARK  103  A    between atoms: _258  and  _259
REMARK  104  A    between atoms: _263  and  _265
REMARK  105  A    between atoms: _265  and  _266
REMARK  106  A    between atoms: _265  and  _268
REMARK  107  A    between atoms: _268  and  _269
REMARK  108  A    between atoms: _269  and  _270
REMARK  109  A    between atoms: _270  and  _271
REMARK  110  A    between atoms: _271  and  _272
REMARK  111  A    between atoms: _276  and  _278
REMARK  112  A    between atoms: _278  and  _279
REMARK  113  A    between atoms: _278  and  _281
REMARK  114  A    between atoms: _281  and  _282
REMARK  115  A    between atoms: _286  and  _287
REMARK  116  A    between atoms: _292  and  _294
REMARK  117  A    between atoms: _294  and  _295
REMARK  118  A    between atoms: _297  and  _299
REMARK  119  A    between atoms: _299  and  _300
REMARK  120  A    between atoms: _299  and  _302
REMARK  121  A    between atoms: _302  and  _303
REMARK  122  A    between atoms: _309  and  _310
REMARK  123  A    between atoms: _315  and  _317
REMARK  124  A    between atoms: _317  and  _318
REMARK  125  A    between atoms: _317  and  _320
REMARK  126  A    between atoms: _320  and  _321
REMARK  127  A    between atoms: _324  and  _326
REMARK  128  A    between atoms: _326  and  _327
REMARK  129  A    between atoms: _326  and  _329
REMARK  130  A    between atoms: _329  and  _330
REMARK  131  A    between atoms: _330  and  _331
REMARK  132  A    between atoms: _331  and  _332
REMARK  133  A    between atoms: _341  and  _343
REMARK  134  A    between atoms: _343  and  _344
REMARK  135  A    between atoms: _343  and  _346
REMARK  136  A    between atoms: _346  and  _347
REMARK  137  A    between atoms: _349  and  _351
REMARK  138  A    between atoms: _351  and  _352
REMARK  139  A    between atoms: _351  and  _354
REMARK  140  A    between atoms: _354  and  _355
REMARK  141  A    between atoms: _360  and  _361
REMARK  142  A    between atoms: _363  and  _365
REMARK  143  A    between atoms: _365  and  _366
REMARK  144  A    between atoms: _365  and  _368
REMARK  145  A    between atoms: _368  and  _369
REMARK  146  A    between atoms: _374  and  _376
REMARK  147  A    between atoms: _376  and  _377
REMARK  148  A    between atoms: _376  and  _379
REMARK  149  A    between atoms: _379  and  _380
REMARK  150  A    between atoms: _380  and  _381
REMARK  151  A    between atoms: _386  and  _388
REMARK  152  A    between atoms: _388  and  _389
REMARK  153  A    between atoms: _388  and  _391
REMARK  154  A    between atoms: _391  and  _392
REMARK  155  A    between atoms: _395  and  _397
REMARK  156  A    between atoms: _397  and  _398
REMARK  157  A    between atoms: _401  and  _403
REMARK  158  A    between atoms: _403  and  _404
REMARK  159  A    between atoms: _407  and  _409
REMARK  160  A    between atoms: _409  and  _410
REMARK  161  A    between atoms: _409  and  _412
REMARK  162  A    between atoms: _412  and  _413
REMARK  163  A    between atoms: _413  and  _414
REMARK  164  A    between atoms: _416  and  _418
REMARK  165  A    between atoms: _418  and  _419
REMARK  166  A    between atoms: _418  and  _421
REMARK  167  A    between atoms: _421  and  _422
REMARK  168  A    between atoms: _422  and  _423
REMARK  169  A    between atoms: _423  and  _424
REMARK  170  A    between atoms: _433  and  _435
REMARK  171  A    between atoms: _435  and  _436
REMARK  172  A    between atoms: _435  and  _438
REMARK  173  A    between atoms: _438  and  _439
REMARK  174  A    between atoms: _439  and  _440
REMARK  175  A    between atoms: _445  and  _447
REMARK  176  A    between atoms: _447  and  _448
REMARK  177  A    between atoms: _450  and  _452
REMARK  178  A    between atoms: _452  and  _453
REMARK  179  A    between atoms: _452  and  _455
REMARK  180  A    between atoms: _455  and  _456
REMARK  181  A    between atoms: _459  and  _461
REMARK  182  A    between atoms: _461  and  _462
REMARK  183  A    between atoms: _461  and  _464
REMARK  184  A    between atoms: _464  and  _465
REMARK  185  A    between atoms: _465  and  _466
REMARK  186  A    between atoms: _469  and  _471
REMARK  187  A    between atoms: _471  and  _472
REMARK  188  A    between atoms: _471  and  _474
REMARK  189  A    between atoms: _474  and  _475
REMARK  190  A    between atoms: _475  and  _476
REMARK  191  A    between atoms: _479  and  _481
REMARK  192  A    between atoms: _481  and  _482
REMARK  193  A    between atoms: _481  and  _484
REMARK  194  A    between atoms: _484  and  _485
REMARK  195  A    between atoms: _488  and  _490
REMARK  196  A    between atoms: _490  and  _491
REMARK  197  A    between atoms: _490  and  _493
REMARK  198  A    between atoms: _493  and  _494
REMARK  199  A    between atoms: _494  and  _495
REMARK  200  A    between atoms: _495  and  _496
REMARK  201  A    between atoms: _505  and  _507
REMARK  202  A    between atoms: _507  and  _508
REMARK  203  A    between atoms: _507  and  _510
REMARK  204  A    between atoms: _510  and  _511
REMARK  205  A    between atoms: _514  and  _516
REMARK  206  A    between atoms: _516  and  _517
REMARK  207  A    between atoms: _520  and  _522
REMARK  208  A    between atoms: _522  and  _523
REMARK  209  A    between atoms: _522  and  _525
REMARK  210  A    between atoms: _528  and  _530
REMARK  211  A    between atoms: _530  and  _531
REMARK  212  A    between atoms: _530  and  _533
REMARK  213  A    between atoms: _533  and  _534
REMARK  214  A    between atoms: _537  and  _539
REMARK  215  A    between atoms: _539  and  _540
REMARK  216  A    between atoms: _539  and  _542
REMARK  217  A    between atoms: _542  and  _543
REMARK  218  A    between atoms: _548  and  _549
REMARK                            x       y       z     vdW  Elec       q    Type
REMARK                         _______ _______ _______ _____ _____    ______ ____
ROOT
ATOM      1  O   HOH     1     -18.033   1.498  -9.101  0.00  0.00    +0.000 OA
ENDROOT
TORSDOF 0
REMARK  Name = ../refined-set-2016/2hw2/2hw2_pocket.pdb
REMARK  218 active torsions:
REMARK  status: ('A' for Active; 'I' for Inactive)
REMARK    1  A    between atoms: _2  and  _3
REMARK    2  A    between atoms: _8  and  _10
REMARK    3  A    between atoms: _10  and  _11
REMARK    4  A    between atoms: _10  and  _13
REMARK    5  A    between atoms: _13  and  _14
REMARK    6  A    between atoms: _20  and  _22
REMARK    7  A    between atoms: _22  and  _23
REMARK    8  A    between atoms: _25  and  _27
REMARK    9  A    between atoms: _27  and  _28
REMARK   10  A    between atoms: _27  and  _30
REMARK   11  A    between atoms: _30  and  _31
REMARK   12  A    between atoms: _33  and  _35
REMARK   13  A    between atoms: _35  and  _36
REMARK   14  A    between atoms: _35  and  _38
REMARK   15  A    between atoms: _38  and  _39
REMARK   16  A    between atoms: _44  and  _46
REMARK   17  A    between atoms: _46  and  _47
REMARK   18  A    between atoms: _46  and  _49
REMARK   19  A    between atoms: _49  and  _50
REMARK   20  A    between atoms: _56  and  _58
REMARK   21  A    between atoms: _58  and  _59
REMARK   22  A    between atoms: _58  and  _61
REMARK   23  A    between atoms: _61  and  _62
REMARK   24  A    between atoms: _62  and  _63
REMARK   25  A    between atoms: _66  and  _68
REMARK   26  A    between atoms: _68  and  _69
REMARK   27  A    between atoms: _68  and  _71
REMARK   28  A    between atoms: _71  and  _72
REMARK   29  A    between atoms: _72  and  _73
REMARK   30  A    between atoms: _75  and  _77
REMARK   31  A    between atoms: _77  and  _78
REMARK   32  A    between atoms: _77  and  _80
REMARK   33  A    between atoms: _80  and  _81
REMARK   34  A    between atoms: _86  and  _87
REMARK   35  A    between atoms: _89  and  _91
REMARK   36  A    between atoms: _91  and  _92
REMARK   37  A    between atoms: _91  and  _94
REMARK   38  A    between atoms: _94  and  _95
REMARK   39  A    between atoms: _98  and  _100
REMARK   40  A    between atoms: _100  and  _101
REMARK   41  A    between atoms: _100  and  _103
REMARK   42  A    between atoms: _103  and  _104
REMARK   43  A    between atoms: _107  and  _109
REMARK   44  A    between atoms: _109  and  _110
REMARK   45  A    between atoms: _109  and  _112
REMARK   46  A    between atoms: _112  and  _113
REMARK   47  A    between atoms: _116  and  _118
REMARK   48  A    between atoms: _118  and  _119
REMARK   49  A    between atoms: _118  and  _121
REMARK   50  A    between atoms: _121  and  _122
REMARK   51  A    between atoms: _125  and  _127
REMARK   52  A    between atoms: _127  and  _128
REMARK   53  A    between atoms: _131  and  _133
REMARK   54  A    between atoms: _133  and  _134
REMARK   55  A    between atoms: _137  and  _139
REMARK   56  A    between atoms: _139  and  _140
REMARK   57  A    between atoms: _139  and  _142
REMARK   58  A    between atoms: _145  and  _147
REMARK   59  A    between atoms: _147  and  _148
REMARK   60  A    between atoms: _147  and  _150
REMARK   61  A    between atoms: _150  and  _151
REMARK   62  A    between atoms: _161  and  _163
REMARK   63  A    between atoms: _163  and  _164
REMARK   64  A    between atoms: _166  and  _168
REMARK   65  A    between atoms: _168  and  _169
REMARK   66  A    between atoms: _172  and  _174
REMARK   67  A    between atoms: _174  and  _175
REMARK   68  A    between atoms: _174  and  _177
REMARK   69  A    between atoms: _177  and  _178
REMARK   70  A    between atoms: _178  and  _179
REMARK   71  A    between atoms: _182  and  _184
REMARK   72  A    between atoms: _184  and  _185
REMARK   73  A    between atoms: _184  and  _187
REMARK   74  A    between atoms: _187  and  _188
REMARK   75  A    between atoms: _191  and  _193
REMARK   76  A    between atoms: _193  and  _194
REMARK   77  A    between atoms: _197  and  _199
REMARK   78  A    between atoms: _199  and  _200
REMARK   79  A    between atoms: _199  and  _202
REMARK   80  A    between atoms: _202  and  _203
REMARK   81  A    between atoms: _207  and  _208
REMARK   82  A    between atoms: _213  and  _215
REMARK   83  A    between atoms: _215  and  _216
REMARK   84  A    between atoms: _215  and  _218
REMARK   85  A    between atoms: _218  and  _219
REMARK   86  A    between atoms: _224  and  _226
REMARK   87  A    between atoms: _226  and  _227
REMARK   88  A    between atoms: _226  and  _229
REMARK   89  A    between atoms: _232  and  _234
REMARK   90  A    between atoms: _234  and  _235
REMARK   91  A    between atoms: _234  and  _237
REMARK   92  A    between atoms: _237  and  _238
REMARK   93  A    between atoms: _241  and  _243
REMARK   94  A    between atoms: _243  and  _244
REMARK   95  A    between atoms: _243  and  _246
REMARK   96  A    between atoms: _246  and  _247
REMARK   97  A    between atoms: _250  and  _252
REMARK   98  A    between atoms: _252  and  _253
REMARK   99  A    between atoms: _252  and  _255
REMARK  100  A    between atoms: _255  and  _256
REMARK  101  A    between atoms: _256  and  _257
REMARK  102  A    between atoms: _257  and  _258
REMARK  103  A    between atoms: _258  and  _259
REMARK  104  A    between atoms: _263  and  _265
REMARK  105  A    between atoms: _265  and  _266
REMARK  106  A    between atoms: _265  and  _268
REMARK  107  A    between atoms: _268  and  _269
REMARK  108  A    between atoms: _269  and  _270
REMARK  109  A    between atoms: _270  and  _271
REMARK  110  A    between atoms: _271  and  _272
REMARK  111  A    between atoms: _276  and  _278
REMARK  112  A    between atoms: _278  and  _279
REMARK  113  A    between atoms: _278  and  _281
REMARK  114  A    between atoms: _281  and  _282
REMARK  115  A    between atoms: _286  and  _287
REMARK  116  A    between atoms: _292  and  _294
REMARK  117  A    between atoms: _294  and  _295
REMARK  118  A    between atoms: _297  and  _299
REMARK  119  A    between atoms: _299  and  _300
REMARK  120  A    between atoms: _299  and  _302
REMARK  121  A    between atoms: _302  and  _303
REMARK  122  A    between atoms: _309  and  _310
REMARK  123  A    between atoms: _315  and  _317
REMARK  124  A    between atoms: _317  and  _318
REMARK  125  A    between atoms: _317  and  _320
REMARK  126  A    between atoms: _320  and  _321
REMARK  127  A    between atoms: _324  and  _326
REMARK  128  A    between atoms: _326  and  _327
REMARK  129  A    between atoms: _326  and  _329
REMARK  130  A    between atoms: _329  and  _330
REMARK  131  A    between atoms: _330  and  _331
REMARK  132  A    between atoms: _331  and  _332
REMARK  133  A    between atoms: _341  and  _343
REMARK  134  A    between atoms: _343  and  _344
REMARK  135  A    between atoms: _343  and  _346
REMARK  136  A    between atoms: _346  and  _347
REMARK  137  A    between atoms: _349  and  _351
REMARK  138  A    between atoms: _351  and  _352
REMARK  139  A    between atoms: _351  and  _354
REMARK  140  A    between atoms: _354  and  _355
REMARK  141  A    between atoms: _360  and  _361
REMARK  142  A    between atoms: _363  and  _365
REMARK  143  A    between atoms: _365  and  _366
REMARK  144  A    between atoms: _365  and  _368
REMARK  145  A    between atoms: _368  and  _369
REMARK  146  A    between atoms: _374  and  _376
REMARK  147  A    between atoms: _376  and  _377
REMARK  148  A    between atoms: _376  and  _379
REMARK  149  A    between atoms: _379  and  _380
REMARK  150  A    between atoms: _380  and  _381
REMARK  151  A    between atoms: _386  and  _388
REMARK  152  A    between atoms: _388  and  _389
REMARK  153  A    between atoms: _388  and  _391
REMARK  154  A    between atoms: _391  and  _392
REMARK  155  A    between atoms: _395  and  _397
REMARK  156  A    between atoms: _397  and  _398
REMARK  157  A    between atoms: _401  and  _403
REMARK  158  A    between atoms: _403  and  _404
REMARK  159  A    between atoms: _407  and  _409
REMARK  160  A    between atoms: _409  and  _410
REMARK  161  A    between atoms: _409  and  _412
REMARK  162  A    between atoms: _412  and  _413
REMARK  163  A    between atoms: _413  and  _414
REMARK  164  A    between atoms: _416  and  _418
REMARK  165  A    between atoms: _418  and  _419
REMARK  166  A    between atoms: _418  and  _421
REMARK  167  A    between atoms: _421  and  _422
REMARK  168  A    between atoms: _422  and  _423
REMARK  169  A    between atoms: _423  and  _424
REMARK  170  A    between atoms: _433  and  _435
REMARK  171  A    between atoms: _435  and  _436
REMARK  172  A    between atoms: _435  and  _438
REMARK  173  A    between atoms: _438  and  _439
REMARK  174  A    between atoms: _439  and  _440
REMARK  175  A    between atoms: _445  and  _447
REMARK  176  A    between atoms: _447  and  _448
REMARK  177  A    between atoms: _450  and  _452
REMARK  178  A    between atoms: _452  and  _453
REMARK  179  A    between atoms: _452  and  _455
REMARK  180  A    between atoms: _455  and  _456
REMARK  181  A    between atoms: _459  and  _461
REMARK  182  A    between atoms: _461  and  _462
REMARK  183  A    between atoms: _461  and  _464
REMARK  184  A    between atoms: _464  and  _465
REMARK  185  A    between atoms: _465  and  _466
REMARK  186  A    between atoms: _469  and  _471
REMARK  187  A    between atoms: _471  and  _472
REMARK  188  A    between atoms: _471  and  _474
REMARK  189  A    between atoms: _474  and  _475
REMARK  190  A    between atoms: _475  and  _476
REMARK  191  A    between atoms: _479  and  _481
REMARK  192  A    between atoms: _481  and  _482
REMARK  193  A    between atoms: _481  and  _484
REMARK  194  A    between atoms: _484  and  _485
REMARK  195  A    between atoms: _488  and  _490
REMARK  196  A    between atoms: _490  and  _491
REMARK  197  A    between atoms: _490  and  _493
REMARK  198  A    between atoms: _493  and  _494
REMARK  199  A    between atoms: _494  and  _495
REMARK  200  A    between atoms: _495  and  _496
REMARK  201  A    between atoms: _505  and  _507
REMARK  202  A    between atoms: _507  and  _508
REMARK  203  A    between atoms: _507  and  _510
REMARK  204  A    between atoms: _510  and  _511
REMARK  205  A    between atoms: _514  and  _516
REMARK  206  A    between atoms: _516  and  _517
REMARK  207  A    between atoms: _520  and  _522
REMARK  208  A    between atoms: _522  and  _523
REMARK  209  A    between atoms: _522  and  _525
REMARK  210  A    between atoms: _528  and  _530
REMARK  211  A    between atoms: _530  and  _531
REMARK  212  A    between atoms: _530  and  _533
REMARK  213  A    between atoms: _533  and  _534
REMARK  214  A    between atoms: _537  and  _539
REMARK  215  A    between atoms: _539  and  _540
REMARK  216  A    between atoms: _539  and  _542
REMARK  217  A    between atoms: _542  and  _543
REMARK  218  A    between atoms: _548  and  _549
REMARK                            x       y       z     vdW  Elec       q    Type
REMARK                         _______ _______ _______ _____ _____    ______ ____
ROOT
ATOM      1  O   HOH     1     -15.336  -0.360 -11.671  0.00  0.00    +0.000 OA
ENDROOT
TORSDOF 0
REMARK  Name = ../refined-set-2016/2hw2/2hw2_pocket.pdb
REMARK  218 active torsions:
REMARK  status: ('A' for Active; 'I' for Inactive)
REMARK    1  A    between atoms: _2  and  _3
REMARK    2  A    between atoms: _8  and  _10
REMARK    3  A    between atoms: _10  and  _11
REMARK    4  A    between atoms: _10  and  _13
REMARK    5  A    between atoms: _13  and  _14
REMARK    6  A    between atoms: _20  and  _22
REMARK    7  A    between atoms: _22  and  _23
REMARK    8  A    between atoms: _25  and  _27
REMARK    9  A    between atoms: _27  and  _28
REMARK   10  A    between atoms: _27  and  _30
REMARK   11  A    between atoms: _30  and  _31
REMARK   12  A    between atoms: _33  and  _35
REMARK   13  A    between atoms: _35  and  _36
REMARK   14  A    between atoms: _35  and  _38
REMARK   15  A    between atoms: _38  and  _39
REMARK   16  A    between atoms: _44  and  _46
REMARK   17  A    between atoms: _46  and  _47
REMARK   18  A    between atoms: _46  and  _49
REMARK   19  A    between atoms: _49  and  _50
REMARK   20  A    between atoms: _56  and  _58
REMARK   21  A    between atoms: _58  and  _59
REMARK   22  A    between atoms: _58  and  _61
REMARK   23  A    between atoms: _61  and  _62
REMARK   24  A    between atoms: _62  and  _63
REMARK   25  A    between atoms: _66  and  _68
REMARK   26  A    between atoms: _68  and  _69
REMARK   27  A    between atoms: _68  and  _71
REMARK   28  A    between atoms: _71  and  _72
REMARK   29  A    between atoms: _72  and  _73
REMARK   30  A    between atoms: _75  and  _77
REMARK   31  A    between atoms: _77  and  _78
REMARK   32  A    between atoms: _77  and  _80
REMARK   33  A    between atoms: _80  and  _81
REMARK   34  A    between atoms: _86  and  _87
REMARK   35  A    between atoms: _89  and  _91
REMARK   36  A    between atoms: _91  and  _92
REMARK   37  A    between atoms: _91  and  _94
REMARK   38  A    between atoms: _94  and  _95
REMARK   39  A    between atoms: _98  and  _100
REMARK   40  A    between atoms: _100  and  _101
REMARK   41  A    between atoms: _100  and  _103
REMARK   42  A    between atoms: _103  and  _104
REMARK   43  A    between atoms: _107  and  _109
REMARK   44  A    between atoms: _109  and  _110
REMARK   45  A    between atoms: _109  and  _112
REMARK   46  A    between atoms: _112  and  _113
REMARK   47  A    between atoms: _116  and  _118
REMARK   48  A    between atoms: _118  and  _119
REMARK   49  A    between atoms: _118  and  _121
REMARK   50  A    between atoms: _121  and  _122
REMARK   51  A    between atoms: _125  and  _127
REMARK   52  A    between atoms: _127  and  _128
REMARK   53  A    between atoms: _131  and  _133
REMARK   54  A    between atoms: _133  and  _134
REMARK   55  A    between atoms: _137  and  _139
REMARK   56  A    between atoms: _139  and  _140
REMARK   57  A    between atoms: _139  and  _142
REMARK   58  A    between atoms: _145  and  _147
REMARK   59  A    between atoms: _147  and  _148
REMARK   60  A    between atoms: _147  and  _150
REMARK   61  A    between atoms: _150  and  _151
REMARK   62  A    between atoms: _161  and  _163
REMARK   63  A    between atoms: _163  and  _164
REMARK   64  A    between atoms: _166  and  _168
REMARK   65  A    between atoms: _168  and  _169
REMARK   66  A    between atoms: _172  and  _174
REMARK   67  A    between atoms: _174  and  _175
REMARK   68  A    between atoms: _174  and  _177
REMARK   69  A    between atoms: _177  and  _178
REMARK   70  A    between atoms: _178  and  _179
REMARK   71  A    between atoms: _182  and  _184
REMARK   72  A    between atoms: _184  and  _185
REMARK   73  A    between atoms: _184  and  _187
REMARK   74  A    between atoms: _187  and  _188
REMARK   75  A    between atoms: _191  and  _193
REMARK   76  A    between atoms: _193  and  _194
REMARK   77  A    between atoms: _197  and  _199
REMARK   78  A    between atoms: _199  and  _200
REMARK   79  A    between atoms: _199  and  _202
REMARK   80  A    between atoms: _202  and  _203
REMARK   81  A    between atoms: _207  and  _208
REMARK   82  A    between atoms: _213  and  _215
REMARK   83  A    between atoms: _215  and  _216
REMARK   84  A    between atoms: _215  and  _218
REMARK   85  A    between atoms: _218  and  _219
REMARK   86  A    between atoms: _224  and  _226
REMARK   87  A    between atoms: _226  and  _227
REMARK   88  A    between atoms: _226  and  _229
REMARK   89  A    between atoms: _232  and  _234
REMARK   90  A    between atoms: _234  and  _235
REMARK   91  A    between atoms: _234  and  _237
REMARK   92  A    between atoms: _237  and  _238
REMARK   93  A    between atoms: _241  and  _243
REMARK   94  A    between atoms: _243  and  _244
REMARK   95  A    between atoms: _243  and  _246
REMARK   96  A    between atoms: _246  and  _247
REMARK   97  A    between atoms: _250  and  _252
REMARK   98  A    between atoms: _252  and  _253
REMARK   99  A    between atoms: _252  and  _255
REMARK  100  A    between atoms: _255  and  _256
REMARK  101  A    between atoms: _256  and  _257
REMARK  102  A    between atoms: _257  and  _258
REMARK  103  A    between atoms: _258  and  _259
REMARK  104  A    between atoms: _263  and  _265
REMARK  105  A    between atoms: _265  and  _266
REMARK  106  A    between atoms: _265  and  _268
REMARK  107  A    between atoms: _268  and  _269
REMARK  108  A    between atoms: _269  and  _270
REMARK  109  A    between atoms: _270  and  _271
REMARK  110  A    between atoms: _271  and  _272
REMARK  111  A    between atoms: _276  and  _278
REMARK  112  A    between atoms: _278  and  _279
REMARK  113  A    between atoms: _278  and  _281
REMARK  114  A    between atoms: _281  and  _282
REMARK  115  A    between atoms: _286  and  _287
REMARK  116  A    between atoms: _292  and  _294
REMARK  117  A    between atoms: _294  and  _295
REMARK  118  A    between atoms: _297  and  _299
REMARK  119  A    between atoms: _299  and  _300
REMARK  120  A    between atoms: _299  and  _302
REMARK  121  A    between atoms: _302  and  _303
REMARK  122  A    between atoms: _309  and  _310
REMARK  123  A    between atoms: _315  and  _317
REMARK  124  A    between atoms: _317  and  _318
REMARK  125  A    between atoms: _317  and  _320
REMARK  126  A    between atoms: _320  and  _321
REMARK  127  A    between atoms: _324  and  _326
REMARK  128  A    between atoms: _326  and  _327
REMARK  129  A    between atoms: _326  and  _329
REMARK  130  A    between atoms: _329  and  _330
REMARK  131  A    between atoms: _330  and  _331
REMARK  132  A    between atoms: _331  and  _332
REMARK  133  A    between atoms: _341  and  _343
REMARK  134  A    between atoms: _343  and  _344
REMARK  135  A    between atoms: _343  and  _346
REMARK  136  A    between atoms: _346  and  _347
REMARK  137  A    between atoms: _349  and  _351
REMARK  138  A    between atoms: _351  and  _352
REMARK  139  A    between atoms: _351  and  _354
REMARK  140  A    between atoms: _354  and  _355
REMARK  141  A    between atoms: _360  and  _361
REMARK  142  A    between atoms: _363  and  _365
REMARK  143  A    between atoms: _365  and  _366
REMARK  144  A    between atoms: _365  and  _368
REMARK  145  A    between atoms: _368  and  _369
REMARK  146  A    between atoms: _374  and  _376
REMARK  147  A    between atoms: _376  and  _377
REMARK  148  A    between atoms: _376  and  _379
REMARK  149  A    between atoms: _379  and  _380
REMARK  150  A    between atoms: _380  and  _381
REMARK  151  A    between atoms: _386  and  _388
REMARK  152  A    between atoms: _388  and  _389
REMARK  153  A    between atoms: _388  and  _391
REMARK  154  A    between atoms: _391  and  _392
REMARK  155  A    between atoms: _395  and  _397
REMARK  156  A    between atoms: _397  and  _398
REMARK  157  A    between atoms: _401  and  _403
REMARK  158  A    between atoms: _403  and  _404
REMARK  159  A    between atoms: _407  and  _409
REMARK  160  A    between atoms: _409  and  _410
REMARK  161  A    between atoms: _409  and  _412
REMARK  162  A    between atoms: _412  and  _413
REMARK  163  A    between atoms: _413  and  _414
REMARK  164  A    between atoms: _416  and  _418
REMARK  165  A    between atoms: _418  and  _419
REMARK  166  A    between atoms: _418  and  _421
REMARK  167  A    between atoms: _421  and  _422
REMARK  168  A    between atoms: _422  and  _423
REMARK  169  A    between atoms: _423  and  _424
REMARK  170  A    between atoms: _433  and  _435
REMARK  171  A    between atoms: _435  and  _436
REMARK  172  A    between atoms: _435  and  _438
REMARK  173  A    between atoms: _438  and  _439
REMARK  174  A    between atoms: _439  and  _440
REMARK  175  A    between atoms: _445  and  _447
REMARK  176  A    between atoms: _447  and  _448
REMARK  177  A    between atoms: _450  and  _452
REMARK  178  A    between atoms: _452  and  _453
REMARK  179  A    between atoms: _452  and  _455
REMARK  180  A    between atoms: _455  and  _456
REMARK  181  A    between atoms: _459  and  _461
REMARK  182  A    between atoms: _461  and  _462
REMARK  183  A    between atoms: _461  and  _464
REMARK  184  A    between atoms: _464  and  _465
REMARK  185  A    between atoms: _465  and  _466
REMARK  186  A    between atoms: _469  and  _471
REMARK  187  A    between atoms: _471  and  _472
REMARK  188  A    between atoms: _471  and  _474
REMARK  189  A    between atoms: _474  and  _475
REMARK  190  A    between atoms: _475  and  _476
REMARK  191  A    between atoms: _479  and  _481
REMARK  192  A    between atoms: _481  and  _482
REMARK  193  A    between atoms: _481  and  _484
REMARK  194  A    between atoms: _484  and  _485
REMARK  195  A    between atoms: _488  and  _490
REMARK  196  A    between atoms: _490  and  _491
REMARK  197  A    between atoms: _490  and  _493
REMARK  198  A    between atoms: _493  and  _494
REMARK  199  A    between atoms: _494  and  _495
REMARK  200  A    between atoms: _495  and  _496
REMARK  201  A    between atoms: _505  and  _507
REMARK  202  A    between atoms: _507  and  _508
REMARK  203  A    between atoms: _507  and  _510
REMARK  204  A    between atoms: _510  and  _511
REMARK  205  A    between atoms: _514  and  _516
REMARK  206  A    between atoms: _516  and  _517
REMARK  207  A    between atoms: _520  and  _522
REMARK  208  A    between atoms: _522  and  _523
REMARK  209  A    between atoms: _522  and  _525
REMARK  210  A    between atoms: _528  and  _530
REMARK  211  A    between atoms: _530  and  _531
REMARK  212  A    between atoms: _530  and  _533
REMARK  213  A    between atoms: _533  and  _534
REMARK  214  A    between atoms: _537  and  _539
REMARK  215  A    between atoms: _539  and  _540
REMARK  216  A    between atoms: _539  and  _542
REMARK  217  A    between atoms: _542  and  _543
REMARK  218  A    between atoms: _548  and  _549
REMARK                            x       y       z     vdW  Elec       q    Type
REMARK                         _______ _______ _______ _____ _____    ______ ____
ROOT
ATOM      1  O   HOH     1     -21.896   2.686 -17.076  0.00  0.00    +0.000 OA
ENDROOT
TORSDOF 0
REMARK  Name = ../refined-set-2016/2hw2/2hw2_pocket.pdb
REMARK  218 active torsions:
REMARK  status: ('A' for Active; 'I' for Inactive)
REMARK    1  A    between atoms: _2  and  _3
REMARK    2  A    between atoms: _8  and  _10
REMARK    3  A    between atoms: _10  and  _11
REMARK    4  A    between atoms: _10  and  _13
REMARK    5  A    between atoms: _13  and  _14
REMARK    6  A    between atoms: _20  and  _22
REMARK    7  A    between atoms: _22  and  _23
REMARK    8  A    between atoms: _25  and  _27
REMARK    9  A    between atoms: _27  and  _28
REMARK   10  A    between atoms: _27  and  _30
REMARK   11  A    between atoms: _30  and  _31
REMARK   12  A    between atoms: _33  and  _35
REMARK   13  A    between atoms: _35  and  _36
REMARK   14  A    between atoms: _35  and  _38
REMARK   15  A    between atoms: _38  and  _39
REMARK   16  A    between atoms: _44  and  _46
REMARK   17  A    between atoms: _46  and  _47
REMARK   18  A    between atoms: _46  and  _49
REMARK   19  A    between atoms: _49  and  _50
REMARK   20  A    between atoms: _56  and  _58
REMARK   21  A    between atoms: _58  and  _59
REMARK   22  A    between atoms: _58  and  _61
REMARK   23  A    between atoms: _61  and  _62
REMARK   24  A    between atoms: _62  and  _63
REMARK   25  A    between atoms: _66  and  _68
REMARK   26  A    between atoms: _68  and  _69
REMARK   27  A    between atoms: _68  and  _71
REMARK   28  A    between atoms: _71  and  _72
REMARK   29  A    between atoms: _72  and  _73
REMARK   30  A    between atoms: _75  and  _77
REMARK   31  A    between atoms: _77  and  _78
REMARK   32  A    between atoms: _77  and  _80
REMARK   33  A    between atoms: _80  and  _81
REMARK   34  A    between atoms: _86  and  _87
REMARK   35  A    between atoms: _89  and  _91
REMARK   36  A    between atoms: _91  and  _92
REMARK   37  A    between atoms: _91  and  _94
REMARK   38  A    between atoms: _94  and  _95
REMARK   39  A    between atoms: _98  and  _100
REMARK   40  A    between atoms: _100  and  _101
REMARK   41  A    between atoms: _100  and  _103
REMARK   42  A    between atoms: _103  and  _104
REMARK   43  A    between atoms: _107  and  _109
REMARK   44  A    between atoms: _109  and  _110
REMARK   45  A    between atoms: _109  and  _112
REMARK   46  A    between atoms: _112  and  _113
REMARK   47  A    between atoms: _116  and  _118
REMARK   48  A    between atoms: _118  and  _119
REMARK   49  A    between atoms: _118  and  _121
REMARK   50  A    between atoms: _121  and  _122
REMARK   51  A    between atoms: _125  and  _127
REMARK   52  A    between atoms: _127  and  _128
REMARK   53  A    between atoms: _131  and  _133
REMARK   54  A    between atoms: _133  and  _134
REMARK   55  A    between atoms: _137  and  _139
REMARK   56  A    between atoms: _139  and  _140
REMARK   57  A    between atoms: _139  and  _142
REMARK   58  A    between atoms: _145  and  _147
REMARK   59  A    between atoms: _147  and  _148
REMARK   60  A    between atoms: _147  and  _150
REMARK   61  A    between atoms: _150  and  _151
REMARK   62  A    between atoms: _161  and  _163
REMARK   63  A    between atoms: _163  and  _164
REMARK   64  A    between atoms: _166  and  _168
REMARK   65  A    between atoms: _168  and  _169
REMARK   66  A    between atoms: _172  and  _174
REMARK   67  A    between atoms: _174  and  _175
REMARK   68  A    between atoms: _174  and  _177
REMARK   69  A    between atoms: _177  and  _178
REMARK   70  A    between atoms: _178  and  _179
REMARK   71  A    between atoms: _182  and  _184
REMARK   72  A    between atoms: _184  and  _185
REMARK   73  A    between atoms: _184  and  _187
REMARK   74  A    between atoms: _187  and  _188
REMARK   75  A    between atoms: _191  and  _193
REMARK   76  A    between atoms: _193  and  _194
REMARK   77  A    between atoms: _197  and  _199
REMARK   78  A    between atoms: _199  and  _200
REMARK   79  A    between atoms: _199  and  _202
REMARK   80  A    between atoms: _202  and  _203
REMARK   81  A    between atoms: _207  and  _208
REMARK   82  A    between atoms: _213  and  _215
REMARK   83  A    between atoms: _215  and  _216
REMARK   84  A    between atoms: _215  and  _218
REMARK   85  A    between atoms: _218  and  _219
REMARK   86  A    between atoms: _224  and  _226
REMARK   87  A    between atoms: _226  and  _227
REMARK   88  A    between atoms: _226  and  _229
REMARK   89  A    between atoms: _232  and  _234
REMARK   90  A    between atoms: _234  and  _235
REMARK   91  A    between atoms: _234  and  _237
REMARK   92  A    between atoms: _237  and  _238
REMARK   93  A    between atoms: _241  and  _243
REMARK   94  A    between atoms: _243  and  _244
REMARK   95  A    between atoms: _243  and  _246
REMARK   96  A    between atoms: _246  and  _247
REMARK   97  A    between atoms: _250  and  _252
REMARK   98  A    between atoms: _252  and  _253
REMARK   99  A    between atoms: _252  and  _255
REMARK  100  A    between atoms: _255  and  _256
REMARK  101  A    between atoms: _256  and  _257
REMARK  102  A    between atoms: _257  and  _258
REMARK  103  A    between atoms: _258  and  _259
REMARK  104  A    between atoms: _263  and  _265
REMARK  105  A    between atoms: _265  and  _266
REMARK  106  A    between atoms: _265  and  _268
REMARK  107  A    between atoms: _268  and  _269
REMARK  108  A    between atoms: _269  and  _270
REMARK  109  A    between atoms: _270  and  _271
REMARK  110  A    between atoms: _271  and  _272
REMARK  111  A    between atoms: _276  and  _278
REMARK  112  A    between atoms: _278  and  _279
REMARK  113  A    between atoms: _278  and  _281
REMARK  114  A    between atoms: _281  and  _282
REMARK  115  A    between atoms: _286  and  _287
REMARK  116  A    between atoms: _292  and  _294
REMARK  117  A    between atoms: _294  and  _295
REMARK  118  A    between atoms: _297  and  _299
REMARK  119  A    between atoms: _299  and  _300
REMARK  120  A    between atoms: _299  and  _302
REMARK  121  A    between atoms: _302  and  _303
REMARK  122  A    between atoms: _309  and  _310
REMARK  123  A    between atoms: _315  and  _317
REMARK  124  A    between atoms: _317  and  _318
REMARK  125  A    between atoms: _317  and  _320
REMARK  126  A    between atoms: _320  and  _321
REMARK  127  A    between atoms: _324  and  _326
REMARK  128  A    between atoms: _326  and  _327
REMARK  129  A    between atoms: _326  and  _329
REMARK  130  A    between atoms: _329  and  _330
REMARK  131  A    between atoms: _330  and  _331
REMARK  132  A    between atoms: _331  and  _332
REMARK  133  A    between atoms: _341  and  _343
REMARK  134  A    between atoms: _343  and  _344
REMARK  135  A    between atoms: _343  and  _346
REMARK  136  A    between atoms: _346  and  _347
REMARK  137  A    between atoms: _349  and  _351
REMARK  138  A    between atoms: _351  and  _352
REMARK  139  A    between atoms: _351  and  _354
REMARK  140  A    between atoms: _354  and  _355
REMARK  141  A    between atoms: _360  and  _361
REMARK  142  A    between atoms: _363  and  _365
REMARK  143  A    between atoms: _365  and  _366
REMARK  144  A    between atoms: _365  and  _368
REMARK  145  A    between atoms: _368  and  _369
REMARK  146  A    between atoms: _374  and  _376
REMARK  147  A    between atoms: _376  and  _377
REMARK  148  A    between atoms: _376  and  _379
REMARK  149  A    between atoms: _379  and  _380
REMARK  150  A    between atoms: _380  and  _381
REMARK  151  A    between atoms: _386  and  _388
REMARK  152  A    between atoms: _388  and  _389
REMARK  153  A    between atoms: _388  and  _391
REMARK  154  A    between atoms: _391  and  _392
REMARK  155  A    between atoms: _395  and  _397
REMARK  156  A    between atoms: _397  and  _398
REMARK  157  A    between atoms: _401  and  _403
REMARK  158  A    between atoms: _403  and  _404
REMARK  159  A    between atoms: _407  and  _409
REMARK  160  A    between atoms: _409  and  _410
REMARK  161  A    between atoms: _409  and  _412
REMARK  162  A    between atoms: _412  and  _413
REMARK  163  A    between atoms: _413  and  _414
REMARK  164  A    between atoms: _416  and  _418
REMARK  165  A    between atoms: _418  and  _419
REMARK  166  A    between atoms: _418  and  _421
REMARK  167  A    between atoms: _421  and  _422
REMARK  168  A    between atoms: _422  and  _423
REMARK  169  A    between atoms: _423  and  _424
REMARK  170  A    between atoms: _433  and  _435
REMARK  171  A    between atoms: _435  and  _436
REMARK  172  A    between atoms: _435  and  _438
REMARK  173  A    between atoms: _438  and  _439
REMARK  174  A    between atoms: _439  and  _440
REMARK  175  A    between atoms: _445  and  _447
REMARK  176  A    between atoms: _447  and  _448
REMARK  177  A    between atoms: _450  and  _452
REMARK  178  A    between atoms: _452  and  _453
REMARK  179  A    between atoms: _452  and  _455
REMARK  180  A    between atoms: _455  and  _456
REMARK  181  A    between atoms: _459  and  _461
REMARK  182  A    between atoms: _461  and  _462
REMARK  183  A    between atoms: _461  and  _464
REMARK  184  A    between atoms: _464  and  _465
REMARK  185  A    between atoms: _465  and  _466
REMARK  186  A    between atoms: _469  and  _471
REMARK  187  A    between atoms: _471  and  _472
REMARK  188  A    between atoms: _471  and  _474
REMARK  189  A    between atoms: _474  and  _475
REMARK  190  A    between atoms: _475  and  _476
REMARK  191  A    between atoms: _479  and  _481
REMARK  192  A    between atoms: _481  and  _482
REMARK  193  A    between atoms: _481  and  _484
REMARK  194  A    between atoms: _484  and  _485
REMARK  195  A    between atoms: _488  and  _490
REMARK  196  A    between atoms: _490  and  _491
REMARK  197  A    between atoms: _490  and  _493
REMARK  198  A    between atoms: _493  and  _494
REMARK  199  A    between atoms: _494  and  _495
REMARK  200  A    between atoms: _495  and  _496
REMARK  201  A    between atoms: _505  and  _507
REMARK  202  A    between atoms: _507  and  _508
REMARK  203  A    between atoms: _507  and  _510
REMARK  204  A    between atoms: _510  and  _511
REMARK  205  A    between atoms: _514  and  _516
REMARK  206  A    between atoms: _516  and  _517
REMARK  207  A    between atoms: _520  and  _522
REMARK  208  A    between atoms: _522  and  _523
REMARK  209  A    between atoms: _522  and  _525
REMARK  210  A    between atoms: _528  and  _530
REMARK  211  A    between atoms: _530  and  _531
REMARK  212  A    between atoms: _530  and  _533
REMARK  213  A    between atoms: _533  and  _534
REMARK  214  A    between atoms: _537  and  _539
REMARK  215  A    between atoms: _539  and  _540
REMARK  216  A    between atoms: _539  and  _542
REMARK  217  A    between atoms: _542  and  _543
REMARK  218  A    between atoms: _548  and  _549
REMARK                            x       y       z     vdW  Elec       q    Type
REMARK                         _______ _______ _______ _____ _____    ______ ____
ROOT
ATOM      1  O   HOH     1     -21.362  15.232 -14.929  0.00  0.00    +0.000 OA
ENDROOT
TORSDOF 0
REMARK  Name = ../refined-set-2016/2hw2/2hw2_pocket.pdb
REMARK  218 active torsions:
REMARK  status: ('A' for Active; 'I' for Inactive)
REMARK    1  A    between atoms: _2  and  _3
REMARK    2  A    between atoms: _8  and  _10
REMARK    3  A    between atoms: _10  and  _11
REMARK    4  A    between atoms: _10  and  _13
REMARK    5  A    between atoms: _13  and  _14
REMARK    6  A    between atoms: _20  and  _22
REMARK    7  A    between atoms: _22  and  _23
REMARK    8  A    between atoms: _25  and  _27
REMARK    9  A    between atoms: _27  and  _28
REMARK   10  A    between atoms: _27  and  _30
REMARK   11  A    between atoms: _30  and  _31
REMARK   12  A    between atoms: _33  and  _35
REMARK   13  A    between atoms: _35  and  _36
REMARK   14  A    between atoms: _35  and  _38
REMARK   15  A    between atoms: _38  and  _39
REMARK   16  A    between atoms: _44  and  _46
REMARK   17  A    between atoms: _46  and  _47
REMARK   18  A    between atoms: _46  and  _49
REMARK   19  A    between atoms: _49  and  _50
REMARK   20  A    between atoms: _56  and  _58
REMARK   21  A    between atoms: _58  and  _59
REMARK   22  A    between atoms: _58  and  _61
REMARK   23  A    between atoms: _61  and  _62
REMARK   24  A    between atoms: _62  and  _63
REMARK   25  A    between atoms: _66  and  _68
REMARK   26  A    between atoms: _68  and  _69
REMARK   27  A    between atoms: _68  and  _71
REMARK   28  A    between atoms: _71  and  _72
REMARK   29  A    between atoms: _72  and  _73
REMARK   30  A    between atoms: _75  and  _77
REMARK   31  A    between atoms: _77  and  _78
REMARK   32  A    between atoms: _77  and  _80
REMARK   33  A    between atoms: _80  and  _81
REMARK   34  A    between atoms: _86  and  _87
REMARK   35  A    between atoms: _89  and  _91
REMARK   36  A    between atoms: _91  and  _92
REMARK   37  A    between atoms: _91  and  _94
REMARK   38  A    between atoms: _94  and  _95
REMARK   39  A    between atoms: _98  and  _100
REMARK   40  A    between atoms: _100  and  _101
REMARK   41  A    between atoms: _100  and  _103
REMARK   42  A    between atoms: _103  and  _104
REMARK   43  A    between atoms: _107  and  _109
REMARK   44  A    between atoms: _109  and  _110
REMARK   45  A    between atoms: _109  and  _112
REMARK   46  A    between atoms: _112  and  _113
REMARK   47  A    between atoms: _116  and  _118
REMARK   48  A    between atoms: _118  and  _119
REMARK   49  A    between atoms: _118  and  _121
REMARK   50  A    between atoms: _121  and  _122
REMARK   51  A    between atoms: _125  and  _127
REMARK   52  A    between atoms: _127  and  _128
REMARK   53  A    between atoms: _131  and  _133
REMARK   54  A    between atoms: _133  and  _134
REMARK   55  A    between atoms: _137  and  _139
REMARK   56  A    between atoms: _139  and  _140
REMARK   57  A    between atoms: _139  and  _142
REMARK   58  A    between atoms: _145  and  _147
REMARK   59  A    between atoms: _147  and  _148
REMARK   60  A    between atoms: _147  and  _150
REMARK   61  A    between atoms: _150  and  _151
REMARK   62  A    between atoms: _161  and  _163
REMARK   63  A    between atoms: _163  and  _164
REMARK   64  A    between atoms: _166  and  _168
REMARK   65  A    between atoms: _168  and  _169
REMARK   66  A    between atoms: _172  and  _174
REMARK   67  A    between atoms: _174  and  _175
REMARK   68  A    between atoms: _174  and  _177
REMARK   69  A    between atoms: _177  and  _178
REMARK   70  A    between atoms: _178  and  _179
REMARK   71  A    between atoms: _182  and  _184
REMARK   72  A    between atoms: _184  and  _185
REMARK   73  A    between atoms: _184  and  _187
REMARK   74  A    between atoms: _187  and  _188
REMARK   75  A    between atoms: _191  and  _193
REMARK   76  A    between atoms: _193  and  _194
REMARK   77  A    between atoms: _197  and  _199
REMARK   78  A    between atoms: _199  and  _200
REMARK   79  A    between atoms: _199  and  _202
REMARK   80  A    between atoms: _202  and  _203
REMARK   81  A    between atoms: _207  and  _208
REMARK   82  A    between atoms: _213  and  _215
REMARK   83  A    between atoms: _215  and  _216
REMARK   84  A    between atoms: _215  and  _218
REMARK   85  A    between atoms: _218  and  _219
REMARK   86  A    between atoms: _224  and  _226
REMARK   87  A    between atoms: _226  and  _227
REMARK   88  A    between atoms: _226  and  _229
REMARK   89  A    between atoms: _232  and  _234
REMARK   90  A    between atoms: _234  and  _235
REMARK   91  A    between atoms: _234  and  _237
REMARK   92  A    between atoms: _237  and  _238
REMARK   93  A    between atoms: _241  and  _243
REMARK   94  A    between atoms: _243  and  _244
REMARK   95  A    between atoms: _243  and  _246
REMARK   96  A    between atoms: _246  and  _247
REMARK   97  A    between atoms: _250  and  _252
REMARK   98  A    between atoms: _252  and  _253
REMARK   99  A    between atoms: _252  and  _255
REMARK  100  A    between atoms: _255  and  _256
REMARK  101  A    between atoms: _256  and  _257
REMARK  102  A    between atoms: _257  and  _258
REMARK  103  A    between atoms: _258  and  _259
REMARK  104  A    between atoms: _263  and  _265
REMARK  105  A    between atoms: _265  and  _266
REMARK  106  A    between atoms: _265  and  _268
REMARK  107  A    between atoms: _268  and  _269
REMARK  108  A    between atoms: _269  and  _270
REMARK  109  A    between atoms: _270  and  _271
REMARK  110  A    between atoms: _271  and  _272
REMARK  111  A    between atoms: _276  and  _278
REMARK  112  A    between atoms: _278  and  _279
REMARK  113  A    between atoms: _278  and  _281
REMARK  114  A    between atoms: _281  and  _282
REMARK  115  A    between atoms: _286  and  _287
REMARK  116  A    between atoms: _292  and  _294
REMARK  117  A    between atoms: _294  and  _295
REMARK  118  A    between atoms: _297  and  _299
REMARK  119  A    between atoms: _299  and  _300
REMARK  120  A    between atoms: _299  and  _302
REMARK  121  A    between atoms: _302  and  _303
REMARK  122  A    between atoms: _309  and  _310
REMARK  123  A    between atoms: _315  and  _317
REMARK  124  A    between atoms: _317  and  _318
REMARK  125  A    between atoms: _317  and  _320
REMARK  126  A    between atoms: _320  and  _321
REMARK  127  A    between atoms: _324  and  _326
REMARK  128  A    between atoms: _326  and  _327
REMARK  129  A    between atoms: _326  and  _329
REMARK  130  A    between atoms: _329  and  _330
REMARK  131  A    between atoms: _330  and  _331
REMARK  132  A    between atoms: _331  and  _332
REMARK  133  A    between atoms: _341  and  _343
REMARK  134  A    between atoms: _343  and  _344
REMARK  135  A    between atoms: _343  and  _346
REMARK  136  A    between atoms: _346  and  _347
REMARK  137  A    between atoms: _349  and  _351
REMARK  138  A    between atoms: _351  and  _352
REMARK  139  A    between atoms: _351  and  _354
REMARK  140  A    between atoms: _354  and  _355
REMARK  141  A    between atoms: _360  and  _361
REMARK  142  A    between atoms: _363  and  _365
REMARK  143  A    between atoms: _365  and  _366
REMARK  144  A    between atoms: _365  and  _368
REMARK  145  A    between atoms: _368  and  _369
REMARK  146  A    between atoms: _374  and  _376
REMARK  147  A    between atoms: _376  and  _377
REMARK  148  A    between atoms: _376  and  _379
REMARK  149  A    between atoms: _379  and  _380
REMARK  150  A    between atoms: _380  and  _381
REMARK  151  A    between atoms: _386  and  _388
REMARK  152  A    between atoms: _388  and  _389
REMARK  153  A    between atoms: _388  and  _391
REMARK  154  A    between atoms: _391  and  _392
REMARK  155  A    between atoms: _395  and  _397
REMARK  156  A    between atoms: _397  and  _398
REMARK  157  A    between atoms: _401  and  _403
REMARK  158  A    between atoms: _403  and  _404
REMARK  159  A    between atoms: _407  and  _409
REMARK  160  A    between atoms: _409  and  _410
REMARK  161  A    between atoms: _409  and  _412
REMARK  162  A    between atoms: _412  and  _413
REMARK  163  A    between atoms: _413  and  _414
REMARK  164  A    between atoms: _416  and  _418
REMARK  165  A    between atoms: _418  and  _419
REMARK  166  A    between atoms: _418  and  _421
REMARK  167  A    between atoms: _421  and  _422
REMARK  168  A    between atoms: _422  and  _423
REMARK  169  A    between atoms: _423  and  _424
REMARK  170  A    between atoms: _433  and  _435
REMARK  171  A    between atoms: _435  and  _436
REMARK  172  A    between atoms: _435  and  _438
REMARK  173  A    between atoms: _438  and  _439
REMARK  174  A    between atoms: _439  and  _440
REMARK  175  A    between atoms: _445  and  _447
REMARK  176  A    between atoms: _447  and  _448
REMARK  177  A    between atoms: _450  and  _452
REMARK  178  A    between atoms: _452  and  _453
REMARK  179  A    between atoms: _452  and  _455
REMARK  180  A    between atoms: _455  and  _456
REMARK  181  A    between atoms: _459  and  _461
REMARK  182  A    between atoms: _461  and  _462
REMARK  183  A    between atoms: _461  and  _464
REMARK  184  A    between atoms: _464  and  _465
REMARK  185  A    between atoms: _465  and  _466
REMARK  186  A    between atoms: _469  and  _471
REMARK  187  A    between atoms: _471  and  _472
REMARK  188  A    between atoms: _471  and  _474
REMARK  189  A    between atoms: _474  and  _475
REMARK  190  A    between atoms: _475  and  _476
REMARK  191  A    between atoms: _479  and  _481
REMARK  192  A    between atoms: _481  and  _482
REMARK  193  A    between atoms: _481  and  _484
REMARK  194  A    between atoms: _484  and  _485
REMARK  195  A    between atoms: _488  and  _490
REMARK  196  A    between atoms: _490  and  _491
REMARK  197  A    between atoms: _490  and  _493
REMARK  198  A    between atoms: _493  and  _494
REMARK  199  A    between atoms: _494  and  _495
REMARK  200  A    between atoms: _495  and  _496
REMARK  201  A    between atoms: _505  and  _507
REMARK  202  A    between atoms: _507  and  _508
REMARK  203  A    between atoms: _507  and  _510
REMARK  204  A    between atoms: _510  and  _511
REMARK  205  A    between atoms: _514  and  _516
REMARK  206  A    between atoms: _516  and  _517
REMARK  207  A    between atoms: _520  and  _522
REMARK  208  A    between atoms: _522  and  _523
REMARK  209  A    between atoms: _522  and  _525
REMARK  210  A    between atoms: _528  and  _530
REMARK  211  A    between atoms: _530  and  _531
REMARK  212  A    between atoms: _530  and  _533
REMARK  213  A    between atoms: _533  and  _534
REMARK  214  A    between atoms: _537  and  _539
REMARK  215  A    between atoms: _539  and  _540
REMARK  216  A    between atoms: _539  and  _542
REMARK  217  A    between atoms: _542  and  _543
REMARK  218  A    between atoms: _548  and  _549
REMARK                            x       y       z     vdW  Elec       q    Type
REMARK                         _______ _______ _______ _____ _____    ______ ____
ROOT
ATOM      1  O   HOH     1     -21.284  12.282 -12.994  0.00  0.00    +0.000 OA
ENDROOT
TORSDOF 0
REMARK  Name = ../refined-set-2016/2hw2/2hw2_pocket.pdb
REMARK  218 active torsions:
REMARK  status: ('A' for Active; 'I' for Inactive)
REMARK    1  A    between atoms: _2  and  _3
REMARK    2  A    between atoms: _8  and  _10
REMARK    3  A    between atoms: _10  and  _11
REMARK    4  A    between atoms: _10  and  _13
REMARK    5  A    between atoms: _13  and  _14
REMARK    6  A    between atoms: _20  and  _22
REMARK    7  A    between atoms: _22  and  _23
REMARK    8  A    between atoms: _25  and  _27
REMARK    9  A    between atoms: _27  and  _28
REMARK   10  A    between atoms: _27  and  _30
REMARK   11  A    between atoms: _30  and  _31
REMARK   12  A    between atoms: _33  and  _35
REMARK   13  A    between atoms: _35  and  _36
REMARK   14  A    between atoms: _35  and  _38
REMARK   15  A    between atoms: _38  and  _39
REMARK   16  A    between atoms: _44  and  _46
REMARK   17  A    between atoms: _46  and  _47
REMARK   18  A    between atoms: _46  and  _49
REMARK   19  A    between atoms: _49  and  _50
REMARK   20  A    between atoms: _56  and  _58
REMARK   21  A    between atoms: _58  and  _59
REMARK   22  A    between atoms: _58  and  _61
REMARK   23  A    between atoms: _61  and  _62
REMARK   24  A    between atoms: _62  and  _63
REMARK   25  A    between atoms: _66  and  _68
REMARK   26  A    between atoms: _68  and  _69
REMARK   27  A    between atoms: _68  and  _71
REMARK   28  A    between atoms: _71  and  _72
REMARK   29  A    between atoms: _72  and  _73
REMARK   30  A    between atoms: _75  and  _77
REMARK   31  A    between atoms: _77  and  _78
REMARK   32  A    between atoms: _77  and  _80
REMARK   33  A    between atoms: _80  and  _81
REMARK   34  A    between atoms: _86  and  _87
REMARK   35  A    between atoms: _89  and  _91
REMARK   36  A    between atoms: _91  and  _92
REMARK   37  A    between atoms: _91  and  _94
REMARK   38  A    between atoms: _94  and  _95
REMARK   39  A    between atoms: _98  and  _100
REMARK   40  A    between atoms: _100  and  _101
REMARK   41  A    between atoms: _100  and  _103
REMARK   42  A    between atoms: _103  and  _104
REMARK   43  A    between atoms: _107  and  _109
REMARK   44  A    between atoms: _109  and  _110
REMARK   45  A    between atoms: _109  and  _112
REMARK   46  A    between atoms: _112  and  _113
REMARK   47  A    between atoms: _116  and  _118
REMARK   48  A    between atoms: _118  and  _119
REMARK   49  A    between atoms: _118  and  _121
REMARK   50  A    between atoms: _121  and  _122
REMARK   51  A    between atoms: _125  and  _127
REMARK   52  A    between atoms: _127  and  _128
REMARK   53  A    between atoms: _131  and  _133
REMARK   54  A    between atoms: _133  and  _134
REMARK   55  A    between atoms: _137  and  _139
REMARK   56  A    between atoms: _139  and  _140
REMARK   57  A    between atoms: _139  and  _142
REMARK   58  A    between atoms: _145  and  _147
REMARK   59  A    between atoms: _147  and  _148
REMARK   60  A    between atoms: _147  and  _150
REMARK   61  A    between atoms: _150  and  _151
REMARK   62  A    between atoms: _161  and  _163
REMARK   63  A    between atoms: _163  and  _164
REMARK   64  A    between atoms: _166  and  _168
REMARK   65  A    between atoms: _168  and  _169
REMARK   66  A    between atoms: _172  and  _174
REMARK   67  A    between atoms: _174  and  _175
REMARK   68  A    between atoms: _174  and  _177
REMARK   69  A    between atoms: _177  and  _178
REMARK   70  A    between atoms: _178  and  _179
REMARK   71  A    between atoms: _182  and  _184
REMARK   72  A    between atoms: _184  and  _185
REMARK   73  A    between atoms: _184  and  _187
REMARK   74  A    between atoms: _187  and  _188
REMARK   75  A    between atoms: _191  and  _193
REMARK   76  A    between atoms: _193  and  _194
REMARK   77  A    between atoms: _197  and  _199
REMARK   78  A    between atoms: _199  and  _200
REMARK   79  A    between atoms: _199  and  _202
REMARK   80  A    between atoms: _202  and  _203
REMARK   81  A    between atoms: _207  and  _208
REMARK   82  A    between atoms: _213  and  _215
REMARK   83  A    between atoms: _215  and  _216
REMARK   84  A    between atoms: _215  and  _218
REMARK   85  A    between atoms: _218  and  _219
REMARK   86  A    between atoms: _224  and  _226
REMARK   87  A    between atoms: _226  and  _227
REMARK   88  A    between atoms: _226  and  _229
REMARK   89  A    between atoms: _232  and  _234
REMARK   90  A    between atoms: _234  and  _235
REMARK   91  A    between atoms: _234  and  _237
REMARK   92  A    between atoms: _237  and  _238
REMARK   93  A    between atoms: _241  and  _243
REMARK   94  A    between atoms: _243  and  _244
REMARK   95  A    between atoms: _243  and  _246
REMARK   96  A    between atoms: _246  and  _247
REMARK   97  A    between atoms: _250  and  _252
REMARK   98  A    between atoms: _252  and  _253
REMARK   99  A    between atoms: _252  and  _255
REMARK  100  A    between atoms: _255  and  _256
REMARK  101  A    between atoms: _256  and  _257
REMARK  102  A    between atoms: _257  and  _258
REMARK  103  A    between atoms: _258  and  _259
REMARK  104  A    between atoms: _263  and  _265
REMARK  105  A    between atoms: _265  and  _266
REMARK  106  A    between atoms: _265  and  _268
REMARK  107  A    between atoms: _268  and  _269
REMARK  108  A    between atoms: _269  and  _270
REMARK  109  A    between atoms: _270  and  _271
REMARK  110  A    between atoms: _271  and  _272
REMARK  111  A    between atoms: _276  and  _278
REMARK  112  A    between atoms: _278  and  _279
REMARK  113  A    between atoms: _278  and  _281
REMARK  114  A    between atoms: _281  and  _282
REMARK  115  A    between atoms: _286  and  _287
REMARK  116  A    between atoms: _292  and  _294
REMARK  117  A    between atoms: _294  and  _295
REMARK  118  A    between atoms: _297  and  _299
REMARK  119  A    between atoms: _299  and  _300
REMARK  120  A    between atoms: _299  and  _302
REMARK  121  A    between atoms: _302  and  _303
REMARK  122  A    between atoms: _309  and  _310
REMARK  123  A    between atoms: _315  and  _317
REMARK  124  A    between atoms: _317  and  _318
REMARK  125  A    between atoms: _317  and  _320
REMARK  126  A    between atoms: _320  and  _321
REMARK  127  A    between atoms: _324  and  _326
REMARK  128  A    between atoms: _326  and  _327
REMARK  129  A    between atoms: _326  and  _329
REMARK  130  A    between atoms: _329  and  _330
REMARK  131  A    between atoms: _330  and  _331
REMARK  132  A    between atoms: _331  and  _332
REMARK  133  A    between atoms: _341  and  _343
REMARK  134  A    between atoms: _343  and  _344
REMARK  135  A    between atoms: _343  and  _346
REMARK  136  A    between atoms: _346  and  _347
REMARK  137  A    between atoms: _349  and  _351
REMARK  138  A    between atoms: _351  and  _352
REMARK  139  A    between atoms: _351  and  _354
REMARK  140  A    between atoms: _354  and  _355
REMARK  141  A    between atoms: _360  and  _361
REMARK  142  A    between atoms: _363  and  _365
REMARK  143  A    between atoms: _365  and  _366
REMARK  144  A    between atoms: _365  and  _368
REMARK  145  A    between atoms: _368  and  _369
REMARK  146  A    between atoms: _374  and  _376
REMARK  147  A    between atoms: _376  and  _377
REMARK  148  A    between atoms: _376  and  _379
REMARK  149  A    between atoms: _379  and  _380
REMARK  150  A    between atoms: _380  and  _381
REMARK  151  A    between atoms: _386  and  _388
REMARK  152  A    between atoms: _388  and  _389
REMARK  153  A    between atoms: _388  and  _391
REMARK  154  A    between atoms: _391  and  _392
REMARK  155  A    between atoms: _395  and  _397
REMARK  156  A    between atoms: _397  and  _398
REMARK  157  A    between atoms: _401  and  _403
REMARK  158  A    between atoms: _403  and  _404
REMARK  159  A    between atoms: _407  and  _409
REMARK  160  A    between atoms: _409  and  _410
REMARK  161  A    between atoms: _409  and  _412
REMARK  162  A    between atoms: _412  and  _413
REMARK  163  A    between atoms: _413  and  _414
REMARK  164  A    between atoms: _416  and  _418
REMARK  165  A    between atoms: _418  and  _419
REMARK  166  A    between atoms: _418  and  _421
REMARK  167  A    between atoms: _421  and  _422
REMARK  168  A    between atoms: _422  and  _423
REMARK  169  A    between atoms: _423  and  _424
REMARK  170  A    between atoms: _433  and  _435
REMARK  171  A    between atoms: _435  and  _436
REMARK  172  A    between atoms: _435  and  _438
REMARK  173  A    between atoms: _438  and  _439
REMARK  174  A    between atoms: _439  and  _440
REMARK  175  A    between atoms: _445  and  _447
REMARK  176  A    between atoms: _447  and  _448
REMARK  177  A    between atoms: _450  and  _452
REMARK  178  A    between atoms: _452  and  _453
REMARK  179  A    between atoms: _452  and  _455
REMARK  180  A    between atoms: _455  and  _456
REMARK  181  A    between atoms: _459  and  _461
REMARK  182  A    between atoms: _461  and  _462
REMARK  183  A    between atoms: _461  and  _464
REMARK  184  A    between atoms: _464  and  _465
REMARK  185  A    between atoms: _465  and  _466
REMARK  186  A    between atoms: _469  and  _471
REMARK  187  A    between atoms: _471  and  _472
REMARK  188  A    between atoms: _471  and  _474
REMARK  189  A    between atoms: _474  and  _475
REMARK  190  A    between atoms: _475  and  _476
REMARK  191  A    between atoms: _479  and  _481
REMARK  192  A    between atoms: _481  and  _482
REMARK  193  A    between atoms: _481  and  _484
REMARK  194  A    between atoms: _484  and  _485
REMARK  195  A    between atoms: _488  and  _490
REMARK  196  A    between atoms: _490  and  _491
REMARK  197  A    between atoms: _490  and  _493
REMARK  198  A    between atoms: _493  and  _494
REMARK  199  A    between atoms: _494  and  _495
REMARK  200  A    between atoms: _495  and  _496
REMARK  201  A    between atoms: _505  and  _507
REMARK  202  A    between atoms: _507  and  _508
REMARK  203  A    between atoms: _507  and  _510
REMARK  204  A    between atoms: _510  and  _511
REMARK  205  A    between atoms: _514  and  _516
REMARK  206  A    between atoms: _516  and  _517
REMARK  207  A    between atoms: _520  and  _522
REMARK  208  A    between atoms: _522  and  _523
REMARK  209  A    between atoms: _522  and  _525
REMARK  210  A    between atoms: _528  and  _530
REMARK  211  A    between atoms: _530  and  _531
REMARK  212  A    between atoms: _530  and  _533
REMARK  213  A    between atoms: _533  and  _534
REMARK  214  A    between atoms: _537  and  _539
REMARK  215  A    between atoms: _539  and  _540
REMARK  216  A    between atoms: _539  and  _542
REMARK  217  A    between atoms: _542  and  _543
REMARK  218  A    between atoms: _548  and  _549
REMARK                            x       y       z     vdW  Elec       q    Type
REMARK                         _______ _______ _______ _____ _____    ______ ____
ROOT
ATOM      1  O   HOH     1      -9.118  14.532 -16.026  0.00  0.00    +0.000 OA
ENDROOT
TORSDOF 0
REMARK  Name = ../refined-set-2016/2hw2/2hw2_pocket.pdb
REMARK  218 active torsions:
REMARK  status: ('A' for Active; 'I' for Inactive)
REMARK    1  A    between atoms: _2  and  _3
REMARK    2  A    between atoms: _8  and  _10
REMARK    3  A    between atoms: _10  and  _11
REMARK    4  A    between atoms: _10  and  _13
REMARK    5  A    between atoms: _13  and  _14
REMARK    6  A    between atoms: _20  and  _22
REMARK    7  A    between atoms: _22  and  _23
REMARK    8  A    between atoms: _25  and  _27
REMARK    9  A    between atoms: _27  and  _28
REMARK   10  A    between atoms: _27  and  _30
REMARK   11  A    between atoms: _30  and  _31
REMARK   12  A    between atoms: _33  and  _35
REMARK   13  A    between atoms: _35  and  _36
REMARK   14  A    between atoms: _35  and  _38
REMARK   15  A    between atoms: _38  and  _39
REMARK   16  A    between atoms: _44  and  _46
REMARK   17  A    between atoms: _46  and  _47
REMARK   18  A    between atoms: _46  and  _49
REMARK   19  A    between atoms: _49  and  _50
REMARK   20  A    between atoms: _56  and  _58
REMARK   21  A    between atoms: _58  and  _59
REMARK   22  A    between atoms: _58  and  _61
REMARK   23  A    between atoms: _61  and  _62
REMARK   24  A    between atoms: _62  and  _63
REMARK   25  A    between atoms: _66  and  _68
REMARK   26  A    between atoms: _68  and  _69
REMARK   27  A    between atoms: _68  and  _71
REMARK   28  A    between atoms: _71  and  _72
REMARK   29  A    between atoms: _72  and  _73
REMARK   30  A    between atoms: _75  and  _77
REMARK   31  A    between atoms: _77  and  _78
REMARK   32  A    between atoms: _77  and  _80
REMARK   33  A    between atoms: _80  and  _81
REMARK   34  A    between atoms: _86  and  _87
REMARK   35  A    between atoms: _89  and  _91
REMARK   36  A    between atoms: _91  and  _92
REMARK   37  A    between atoms: _91  and  _94
REMARK   38  A    between atoms: _94  and  _95
REMARK   39  A    between atoms: _98  and  _100
REMARK   40  A    between atoms: _100  and  _101
REMARK   41  A    between atoms: _100  and  _103
REMARK   42  A    between atoms: _103  and  _104
REMARK   43  A    between atoms: _107  and  _109
REMARK   44  A    between atoms: _109  and  _110
REMARK   45  A    between atoms: _109  and  _112
REMARK   46  A    between atoms: _112  and  _113
REMARK   47  A    between atoms: _116  and  _118
REMARK   48  A    between atoms: _118  and  _119
REMARK   49  A    between atoms: _118  and  _121
REMARK   50  A    between atoms: _121  and  _122
REMARK   51  A    between atoms: _125  and  _127
REMARK   52  A    between atoms: _127  and  _128
REMARK   53  A    between atoms: _131  and  _133
REMARK   54  A    between atoms: _133  and  _134
REMARK   55  A    between atoms: _137  and  _139
REMARK   56  A    between atoms: _139  and  _140
REMARK   57  A    between atoms: _139  and  _142
REMARK   58  A    between atoms: _145  and  _147
REMARK   59  A    between atoms: _147  and  _148
REMARK   60  A    between atoms: _147  and  _150
REMARK   61  A    between atoms: _150  and  _151
REMARK   62  A    between atoms: _161  and  _163
REMARK   63  A    between atoms: _163  and  _164
REMARK   64  A    between atoms: _166  and  _168
REMARK   65  A    between atoms: _168  and  _169
REMARK   66  A    between atoms: _172  and  _174
REMARK   67  A    between atoms: _174  and  _175
REMARK   68  A    between atoms: _174  and  _177
REMARK   69  A    between atoms: _177  and  _178
REMARK   70  A    between atoms: _178  and  _179
REMARK   71  A    between atoms: _182  and  _184
REMARK   72  A    between atoms: _184  and  _185
REMARK   73  A    between atoms: _184  and  _187
REMARK   74  A    between atoms: _187  and  _188
REMARK   75  A    between atoms: _191  and  _193
REMARK   76  A    between atoms: _193  and  _194
REMARK   77  A    between atoms: _197  and  _199
REMARK   78  A    between atoms: _199  and  _200
REMARK   79  A    between atoms: _199  and  _202
REMARK   80  A    between atoms: _202  and  _203
REMARK   81  A    between atoms: _207  and  _208
REMARK   82  A    between atoms: _213  and  _215
REMARK   83  A    between atoms: _215  and  _216
REMARK   84  A    between atoms: _215  and  _218
REMARK   85  A    between atoms: _218  and  _219
REMARK   86  A    between atoms: _224  and  _226
REMARK   87  A    between atoms: _226  and  _227
REMARK   88  A    between atoms: _226  and  _229
REMARK   89  A    between atoms: _232  and  _234
REMARK   90  A    between atoms: _234  and  _235
REMARK   91  A    between atoms: _234  and  _237
REMARK   92  A    between atoms: _237  and  _238
REMARK   93  A    between atoms: _241  and  _243
REMARK   94  A    between atoms: _243  and  _244
REMARK   95  A    between atoms: _243  and  _246
REMARK   96  A    between atoms: _246  and  _247
REMARK   97  A    between atoms: _250  and  _252
REMARK   98  A    between atoms: _252  and  _253
REMARK   99  A    between atoms: _252  and  _255
REMARK  100  A    between atoms: _255  and  _256
REMARK  101  A    between atoms: _256  and  _257
REMARK  102  A    between atoms: _257  and  _258
REMARK  103  A    between atoms: _258  and  _259
REMARK  104  A    between atoms: _263  and  _265
REMARK  105  A    between atoms: _265  and  _266
REMARK  106  A    between atoms: _265  and  _268
REMARK  107  A    between atoms: _268  and  _269
REMARK  108  A    between atoms: _269  and  _270
REMARK  109  A    between atoms: _270  and  _271
REMARK  110  A    between atoms: _271  and  _272
REMARK  111  A    between atoms: _276  and  _278
REMARK  112  A    between atoms: _278  and  _279
REMARK  113  A    between atoms: _278  and  _281
REMARK  114  A    between atoms: _281  and  _282
REMARK  115  A    between atoms: _286  and  _287
REMARK  116  A    between atoms: _292  and  _294
REMARK  117  A    between atoms: _294  and  _295
REMARK  118  A    between atoms: _297  and  _299
REMARK  119  A    between atoms: _299  and  _300
REMARK  120  A    between atoms: _299  and  _302
REMARK  121  A    between atoms: _302  and  _303
REMARK  122  A    between atoms: _309  and  _310
REMARK  123  A    between atoms: _315  and  _317
REMARK  124  A    between atoms: _317  and  _318
REMARK  125  A    between atoms: _317  and  _320
REMARK  126  A    between atoms: _320  and  _321
REMARK  127  A    between atoms: _324  and  _326
REMARK  128  A    between atoms: _326  and  _327
REMARK  129  A    between atoms: _326  and  _329
REMARK  130  A    between atoms: _329  and  _330
REMARK  131  A    between atoms: _330  and  _331
REMARK  132  A    between atoms: _331  and  _332
REMARK  133  A    between atoms: _341  and  _343
REMARK  134  A    between atoms: _343  and  _344
REMARK  135  A    between atoms: _343  and  _346
REMARK  136  A    between atoms: _346  and  _347
REMARK  137  A    between atoms: _349  and  _351
REMARK  138  A    between atoms: _351  and  _352
REMARK  139  A    between atoms: _351  and  _354
REMARK  140  A    between atoms: _354  and  _355
REMARK  141  A    between atoms: _360  and  _361
REMARK  142  A    between atoms: _363  and  _365
REMARK  143  A    between atoms: _365  and  _366
REMARK  144  A    between atoms: _365  and  _368
REMARK  145  A    between atoms: _368  and  _369
REMARK  146  A    between atoms: _374  and  _376
REMARK  147  A    between atoms: _376  and  _377
REMARK  148  A    between atoms: _376  and  _379
REMARK  149  A    between atoms: _379  and  _380
REMARK  150  A    between atoms: _380  and  _381
REMARK  151  A    between atoms: _386  and  _388
REMARK  152  A    between atoms: _388  and  _389
REMARK  153  A    between atoms: _388  and  _391
REMARK  154  A    between atoms: _391  and  _392
REMARK  155  A    between atoms: _395  and  _397
REMARK  156  A    between atoms: _397  and  _398
REMARK  157  A    between atoms: _401  and  _403
REMARK  158  A    between atoms: _403  and  _404
REMARK  159  A    between atoms: _407  and  _409
REMARK  160  A    between atoms: _409  and  _410
REMARK  161  A    between atoms: _409  and  _412
REMARK  162  A    between atoms: _412  and  _413
REMARK  163  A    between atoms: _413  and  _414
REMARK  164  A    between atoms: _416  and  _418
REMARK  165  A    between atoms: _418  and  _419
REMARK  166  A    between atoms: _418  and  _421
REMARK  167  A    between atoms: _421  and  _422
REMARK  168  A    between atoms: _422  and  _423
REMARK  169  A    between atoms: _423  and  _424
REMARK  170  A    between atoms: _433  and  _435
REMARK  171  A    between atoms: _435  and  _436
REMARK  172  A    between atoms: _435  and  _438
REMARK  173  A    between atoms: _438  and  _439
REMARK  174  A    between atoms: _439  and  _440
REMARK  175  A    between atoms: _445  and  _447
REMARK  176  A    between atoms: _447  and  _448
REMARK  177  A    between atoms: _450  and  _452
REMARK  178  A    between atoms: _452  and  _453
REMARK  179  A    between atoms: _452  and  _455
REMARK  180  A    between atoms: _455  and  _456
REMARK  181  A    between atoms: _459  and  _461
REMARK  182  A    between atoms: _461  and  _462
REMARK  183  A    between atoms: _461  and  _464
REMARK  184  A    between atoms: _464  and  _465
REMARK  185  A    between atoms: _465  and  _466
REMARK  186  A    between atoms: _469  and  _471
REMARK  187  A    between atoms: _471  and  _472
REMARK  188  A    between atoms: _471  and  _474
REMARK  189  A    between atoms: _474  and  _475
REMARK  190  A    between atoms: _475  and  _476
REMARK  191  A    between atoms: _479  and  _481
REMARK  192  A    between atoms: _481  and  _482
REMARK  193  A    between atoms: _481  and  _484
REMARK  194  A    between atoms: _484  and  _485
REMARK  195  A    between atoms: _488  and  _490
REMARK  196  A    between atoms: _490  and  _491
REMARK  197  A    between atoms: _490  and  _493
REMARK  198  A    between atoms: _493  and  _494
REMARK  199  A    between atoms: _494  and  _495
REMARK  200  A    between atoms: _495  and  _496
REMARK  201  A    between atoms: _505  and  _507
REMARK  202  A    between atoms: _507  and  _508
REMARK  203  A    between atoms: _507  and  _510
REMARK  204  A    between atoms: _510  and  _511
REMARK  205  A    between atoms: _514  and  _516
REMARK  206  A    between atoms: _516  and  _517
REMARK  207  A    between atoms: _520  and  _522
REMARK  208  A    between atoms: _522  and  _523
REMARK  209  A    between atoms: _522  and  _525
REMARK  210  A    between atoms: _528  and  _530
REMARK  211  A    between atoms: _530  and  _531
REMARK  212  A    between atoms: _530  and  _533
REMARK  213  A    between atoms: _533  and  _534
REMARK  214  A    between atoms: _537  and  _539
REMARK  215  A    between atoms: _539  and  _540
REMARK  216  A    between atoms: _539  and  _542
REMARK  217  A    between atoms: _542  and  _543
REMARK  218  A    between atoms: _548  and  _549
REMARK                            x       y       z     vdW  Elec       q    Type
REMARK                         _______ _______ _______ _____ _____    ______ ____
ROOT
ATOM      1  O   HOH     1      -8.000  14.181 -13.659  0.00  0.00    +0.000 OA
ENDROOT
TORSDOF 0
REMARK  Name = ../refined-set-2016/2hw2/2hw2_pocket.pdb
REMARK  218 active torsions:
REMARK  status: ('A' for Active; 'I' for Inactive)
REMARK    1  A    between atoms: _2  and  _3
REMARK    2  A    between atoms: _8  and  _10
REMARK    3  A    between atoms: _10  and  _11
REMARK    4  A    between atoms: _10  and  _13
REMARK    5  A    between atoms: _13  and  _14
REMARK    6  A    between atoms: _20  and  _22
REMARK    7  A    between atoms: _22  and  _23
REMARK    8  A    between atoms: _25  and  _27
REMARK    9  A    between atoms: _27  and  _28
REMARK   10  A    between atoms: _27  and  _30
REMARK   11  A    between atoms: _30  and  _31
REMARK   12  A    between atoms: _33  and  _35
REMARK   13  A    between atoms: _35  and  _36
REMARK   14  A    between atoms: _35  and  _38
REMARK   15  A    between atoms: _38  and  _39
REMARK   16  A    between atoms: _44  and  _46
REMARK   17  A    between atoms: _46  and  _47
REMARK   18  A    between atoms: _46  and  _49
REMARK   19  A    between atoms: _49  and  _50
REMARK   20  A    between atoms: _56  and  _58
REMARK   21  A    between atoms: _58  and  _59
REMARK   22  A    between atoms: _58  and  _61
REMARK   23  A    between atoms: _61  and  _62
REMARK   24  A    between atoms: _62  and  _63
REMARK   25  A    between atoms: _66  and  _68
REMARK   26  A    between atoms: _68  and  _69
REMARK   27  A    between atoms: _68  and  _71
REMARK   28  A    between atoms: _71  and  _72
REMARK   29  A    between atoms: _72  and  _73
REMARK   30  A    between atoms: _75  and  _77
REMARK   31  A    between atoms: _77  and  _78
REMARK   32  A    between atoms: _77  and  _80
REMARK   33  A    between atoms: _80  and  _81
REMARK   34  A    between atoms: _86  and  _87
REMARK   35  A    between atoms: _89  and  _91
REMARK   36  A    between atoms: _91  and  _92
REMARK   37  A    between atoms: _91  and  _94
REMARK   38  A    between atoms: _94  and  _95
REMARK   39  A    between atoms: _98  and  _100
REMARK   40  A    between atoms: _100  and  _101
REMARK   41  A    between atoms: _100  and  _103
REMARK   42  A    between atoms: _103  and  _104
REMARK   43  A    between atoms: _107  and  _109
REMARK   44  A    between atoms: _109  and  _110
REMARK   45  A    between atoms: _109  and  _112
REMARK   46  A    between atoms: _112  and  _113
REMARK   47  A    between atoms: _116  and  _118
REMARK   48  A    between atoms: _118  and  _119
REMARK   49  A    between atoms: _118  and  _121
REMARK   50  A    between atoms: _121  and  _122
REMARK   51  A    between atoms: _125  and  _127
REMARK   52  A    between atoms: _127  and  _128
REMARK   53  A    between atoms: _131  and  _133
REMARK   54  A    between atoms: _133  and  _134
REMARK   55  A    between atoms: _137  and  _139
REMARK   56  A    between atoms: _139  and  _140
REMARK   57  A    between atoms: _139  and  _142
REMARK   58  A    between atoms: _145  and  _147
REMARK   59  A    between atoms: _147  and  _148
REMARK   60  A    between atoms: _147  and  _150
REMARK   61  A    between atoms: _150  and  _151
REMARK   62  A    between atoms: _161  and  _163
REMARK   63  A    between atoms: _163  and  _164
REMARK   64  A    between atoms: _166  and  _168
REMARK   65  A    between atoms: _168  and  _169
REMARK   66  A    between atoms: _172  and  _174
REMARK   67  A    between atoms: _174  and  _175
REMARK   68  A    between atoms: _174  and  _177
REMARK   69  A    between atoms: _177  and  _178
REMARK   70  A    between atoms: _178  and  _179
REMARK   71  A    between atoms: _182  and  _184
REMARK   72  A    between atoms: _184  and  _185
REMARK   73  A    between atoms: _184  and  _187
REMARK   74  A    between atoms: _187  and  _188
REMARK   75  A    between atoms: _191  and  _193
REMARK   76  A    between atoms: _193  and  _194
REMARK   77  A    between atoms: _197  and  _199
REMARK   78  A    between atoms: _199  and  _200
REMARK   79  A    between atoms: _199  and  _202
REMARK   80  A    between atoms: _202  and  _203
REMARK   81  A    between atoms: _207  and  _208
REMARK   82  A    between atoms: _213  and  _215
REMARK   83  A    between atoms: _215  and  _216
REMARK   84  A    between atoms: _215  and  _218
REMARK   85  A    between atoms: _218  and  _219
REMARK   86  A    between atoms: _224  and  _226
REMARK   87  A    between atoms: _226  and  _227
REMARK   88  A    between atoms: _226  and  _229
REMARK   89  A    between atoms: _232  and  _234
REMARK   90  A    between atoms: _234  and  _235
REMARK   91  A    between atoms: _234  and  _237
REMARK   92  A    between atoms: _237  and  _238
REMARK   93  A    between atoms: _241  and  _243
REMARK   94  A    between atoms: _243  and  _244
REMARK   95  A    between atoms: _243  and  _246
REMARK   96  A    between atoms: _246  and  _247
REMARK   97  A    between atoms: _250  and  _252
REMARK   98  A    between atoms: _252  and  _253
REMARK   99  A    between atoms: _252  and  _255
REMARK  100  A    between atoms: _255  and  _256
REMARK  101  A    between atoms: _256  and  _257
REMARK  102  A    between atoms: _257  and  _258
REMARK  103  A    between atoms: _258  and  _259
REMARK  104  A    between atoms: _263  and  _265
REMARK  105  A    between atoms: _265  and  _266
REMARK  106  A    between atoms: _265  and  _268
REMARK  107  A    between atoms: _268  and  _269
REMARK  108  A    between atoms: _269  and  _270
REMARK  109  A    between atoms: _270  and  _271
REMARK  110  A    between atoms: _271  and  _272
REMARK  111  A    between atoms: _276  and  _278
REMARK  112  A    between atoms: _278  and  _279
REMARK  113  A    between atoms: _278  and  _281
REMARK  114  A    between atoms: _281  and  _282
REMARK  115  A    between atoms: _286  and  _287
REMARK  116  A    between atoms: _292  and  _294
REMARK  117  A    between atoms: _294  and  _295
REMARK  118  A    between atoms: _297  and  _299
REMARK  119  A    between atoms: _299  and  _300
REMARK  120  A    between atoms: _299  and  _302
REMARK  121  A    between atoms: _302  and  _303
REMARK  122  A    between atoms: _309  and  _310
REMARK  123  A    between atoms: _315  and  _317
REMARK  124  A    between atoms: _317  and  _318
REMARK  125  A    between atoms: _317  and  _320
REMARK  126  A    between atoms: _320  and  _321
REMARK  127  A    between atoms: _324  and  _326
REMARK  128  A    between atoms: _326  and  _327
REMARK  129  A    between atoms: _326  and  _329
REMARK  130  A    between atoms: _329  and  _330
REMARK  131  A    between atoms: _330  and  _331
REMARK  132  A    between atoms: _331  and  _332
REMARK  133  A    between atoms: _341  and  _343
REMARK  134  A    between atoms: _343  and  _344
REMARK  135  A    between atoms: _343  and  _346
REMARK  136  A    between atoms: _346  and  _347
REMARK  137  A    between atoms: _349  and  _351
REMARK  138  A    between atoms: _351  and  _352
REMARK  139  A    between atoms: _351  and  _354
REMARK  140  A    between atoms: _354  and  _355
REMARK  141  A    between atoms: _360  and  _361
REMARK  142  A    between atoms: _363  and  _365
REMARK  143  A    between atoms: _365  and  _366
REMARK  144  A    between atoms: _365  and  _368
REMARK  145  A    between atoms: _368  and  _369
REMARK  146  A    between atoms: _374  and  _376
REMARK  147  A    between atoms: _376  and  _377
REMARK  148  A    between atoms: _376  and  _379
REMARK  149  A    between atoms: _379  and  _380
REMARK  150  A    between atoms: _380  and  _381
REMARK  151  A    between atoms: _386  and  _388
REMARK  152  A    between atoms: _388  and  _389
REMARK  153  A    between atoms: _388  and  _391
REMARK  154  A    between atoms: _391  and  _392
REMARK  155  A    between atoms: _395  and  _397
REMARK  156  A    between atoms: _397  and  _398
REMARK  157  A    between atoms: _401  and  _403
REMARK  158  A    between atoms: _403  and  _404
REMARK  159  A    between atoms: _407  and  _409
REMARK  160  A    between atoms: _409  and  _410
REMARK  161  A    between atoms: _409  and  _412
REMARK  162  A    between atoms: _412  and  _413
REMARK  163  A    between atoms: _413  and  _414
REMARK  164  A    between atoms: _416  and  _418
REMARK  165  A    between atoms: _418  and  _419
REMARK  166  A    between atoms: _418  and  _421
REMARK  167  A    between atoms: _421  and  _422
REMARK  168  A    between atoms: _422  and  _423
REMARK  169  A    between atoms: _423  and  _424
REMARK  170  A    between atoms: _433  and  _435
REMARK  171  A    between atoms: _435  and  _436
REMARK  172  A    between atoms: _435  and  _438
REMARK  173  A    between atoms: _438  and  _439
REMARK  174  A    between atoms: _439  and  _440
REMARK  175  A    between atoms: _445  and  _447
REMARK  176  A    between atoms: _447  and  _448
REMARK  177  A    between atoms: _450  and  _452
REMARK  178  A    between atoms: _452  and  _453
REMARK  179  A    between atoms: _452  and  _455
REMARK  180  A    between atoms: _455  and  _456
REMARK  181  A    between atoms: _459  and  _461
REMARK  182  A    between atoms: _461  and  _462
REMARK  183  A    between atoms: _461  and  _464
REMARK  184  A    between atoms: _464  and  _465
REMARK  185  A    between atoms: _465  and  _466
REMARK  186  A    between atoms: _469  and  _471
REMARK  187  A    between atoms: _471  and  _472
REMARK  188  A    between atoms: _471  and  _474
REMARK  189  A    between atoms: _474  and  _475
REMARK  190  A    between atoms: _475  and  _476
REMARK  191  A    between atoms: _479  and  _481
REMARK  192  A    between atoms: _481  and  _482
REMARK  193  A    between atoms: _481  and  _484
REMARK  194  A    between atoms: _484  and  _485
REMARK  195  A    between atoms: _488  and  _490
REMARK  196  A    between atoms: _490  and  _491
REMARK  197  A    between atoms: _490  and  _493
REMARK  198  A    between atoms: _493  and  _494
REMARK  199  A    between atoms: _494  and  _495
REMARK  200  A    between atoms: _495  and  _496
REMARK  201  A    between atoms: _505  and  _507
REMARK  202  A    between atoms: _507  and  _508
REMARK  203  A    between atoms: _507  and  _510
REMARK  204  A    between atoms: _510  and  _511
REMARK  205  A    between atoms: _514  and  _516
REMARK  206  A    between atoms: _516  and  _517
REMARK  207  A    between atoms: _520  and  _522
REMARK  208  A    between atoms: _522  and  _523
REMARK  209  A    between atoms: _522  and  _525
REMARK  210  A    between atoms: _528  and  _530
REMARK  211  A    between atoms: _530  and  _531
REMARK  212  A    between atoms: _530  and  _533
REMARK  213  A    between atoms: _533  and  _534
REMARK  214  A    between atoms: _537  and  _539
REMARK  215  A    between atoms: _539  and  _540
REMARK  216  A    between atoms: _539  and  _542
REMARK  217  A    between atoms: _542  and  _543
REMARK  218  A    between atoms: _548  and  _549
REMARK                            x       y       z     vdW  Elec       q    Type
REMARK                         _______ _______ _______ _____ _____    ______ ____
ROOT
ATOM      1  O   HOH     1     -13.217   7.361 -26.705  0.00  0.00    +0.000 OA
ENDROOT
TORSDOF 0
REMARK  Name = ../refined-set-2016/2hw2/2hw2_pocket.pdb
REMARK  218 active torsions:
REMARK  status: ('A' for Active; 'I' for Inactive)
REMARK    1  A    between atoms: _2  and  _3
REMARK    2  A    between atoms: _8  and  _10
REMARK    3  A    between atoms: _10  and  _11
REMARK    4  A    between atoms: _10  and  _13
REMARK    5  A    between atoms: _13  and  _14
REMARK    6  A    between atoms: _20  and  _22
REMARK    7  A    between atoms: _22  and  _23
REMARK    8  A    between atoms: _25  and  _27
REMARK    9  A    between atoms: _27  and  _28
REMARK   10  A    between atoms: _27  and  _30
REMARK   11  A    between atoms: _30  and  _31
REMARK   12  A    between atoms: _33  and  _35
REMARK   13  A    between atoms: _35  and  _36
REMARK   14  A    between atoms: _35  and  _38
REMARK   15  A    between atoms: _38  and  _39
REMARK   16  A    between atoms: _44  and  _46
REMARK   17  A    between atoms: _46  and  _47
REMARK   18  A    between atoms: _46  and  _49
REMARK   19  A    between atoms: _49  and  _50
REMARK   20  A    between atoms: _56  and  _58
REMARK   21  A    between atoms: _58  and  _59
REMARK   22  A    between atoms: _58  and  _61
REMARK   23  A    between atoms: _61  and  _62
REMARK   24  A    between atoms: _62  and  _63
REMARK   25  A    between atoms: _66  and  _68
REMARK   26  A    between atoms: _68  and  _69
REMARK   27  A    between atoms: _68  and  _71
REMARK   28  A    between atoms: _71  and  _72
REMARK   29  A    between atoms: _72  and  _73
REMARK   30  A    between atoms: _75  and  _77
REMARK   31  A    between atoms: _77  and  _78
REMARK   32  A    between atoms: _77  and  _80
REMARK   33  A    between atoms: _80  and  _81
REMARK   34  A    between atoms: _86  and  _87
REMARK   35  A    between atoms: _89  and  _91
REMARK   36  A    between atoms: _91  and  _92
REMARK   37  A    between atoms: _91  and  _94
REMARK   38  A    between atoms: _94  and  _95
REMARK   39  A    between atoms: _98  and  _100
REMARK   40  A    between atoms: _100  and  _101
REMARK   41  A    between atoms: _100  and  _103
REMARK   42  A    between atoms: _103  and  _104
REMARK   43  A    between atoms: _107  and  _109
REMARK   44  A    between atoms: _109  and  _110
REMARK   45  A    between atoms: _109  and  _112
REMARK   46  A    between atoms: _112  and  _113
REMARK   47  A    between atoms: _116  and  _118
REMARK   48  A    between atoms: _118  and  _119
REMARK   49  A    between atoms: _118  and  _121
REMARK   50  A    between atoms: _121  and  _122
REMARK   51  A    between atoms: _125  and  _127
REMARK   52  A    between atoms: _127  and  _128
REMARK   53  A    between atoms: _131  and  _133
REMARK   54  A    between atoms: _133  and  _134
REMARK   55  A    between atoms: _137  and  _139
REMARK   56  A    between atoms: _139  and  _140
REMARK   57  A    between atoms: _139  and  _142
REMARK   58  A    between atoms: _145  and  _147
REMARK   59  A    between atoms: _147  and  _148
REMARK   60  A    between atoms: _147  and  _150
REMARK   61  A    between atoms: _150  and  _151
REMARK   62  A    between atoms: _161  and  _163
REMARK   63  A    between atoms: _163  and  _164
REMARK   64  A    between atoms: _166  and  _168
REMARK   65  A    between atoms: _168  and  _169
REMARK   66  A    between atoms: _172  and  _174
REMARK   67  A    between atoms: _174  and  _175
REMARK   68  A    between atoms: _174  and  _177
REMARK   69  A    between atoms: _177  and  _178
REMARK   70  A    between atoms: _178  and  _179
REMARK   71  A    between atoms: _182  and  _184
REMARK   72  A    between atoms: _184  and  _185
REMARK   73  A    between atoms: _184  and  _187
REMARK   74  A    between atoms: _187  and  _188
REMARK   75  A    between atoms: _191  and  _193
REMARK   76  A    between atoms: _193  and  _194
REMARK   77  A    between atoms: _197  and  _199
REMARK   78  A    between atoms: _199  and  _200
REMARK   79  A    between atoms: _199  and  _202
REMARK   80  A    between atoms: _202  and  _203
REMARK   81  A    between atoms: _207  and  _208
REMARK   82  A    between atoms: _213  and  _215
REMARK   83  A    between atoms: _215  and  _216
REMARK   84  A    between atoms: _215  and  _218
REMARK   85  A    between atoms: _218  and  _219
REMARK   86  A    between atoms: _224  and  _226
REMARK   87  A    between atoms: _226  and  _227
REMARK   88  A    between atoms: _226  and  _229
REMARK   89  A    between atoms: _232  and  _234
REMARK   90  A    between atoms: _234  and  _235
REMARK   91  A    between atoms: _234  and  _237
REMARK   92  A    between atoms: _237  and  _238
REMARK   93  A    between atoms: _241  and  _243
REMARK   94  A    between atoms: _243  and  _244
REMARK   95  A    between atoms: _243  and  _246
REMARK   96  A    between atoms: _246  and  _247
REMARK   97  A    between atoms: _250  and  _252
REMARK   98  A    between atoms: _252  and  _253
REMARK   99  A    between atoms: _252  and  _255
REMARK  100  A    between atoms: _255  and  _256
REMARK  101  A    between atoms: _256  and  _257
REMARK  102  A    between atoms: _257  and  _258
REMARK  103  A    between atoms: _258  and  _259
REMARK  104  A    between atoms: _263  and  _265
REMARK  105  A    between atoms: _265  and  _266
REMARK  106  A    between atoms: _265  and  _268
REMARK  107  A    between atoms: _268  and  _269
REMARK  108  A    between atoms: _269  and  _270
REMARK  109  A    between atoms: _270  and  _271
REMARK  110  A    between atoms: _271  and  _272
REMARK  111  A    between atoms: _276  and  _278
REMARK  112  A    between atoms: _278  and  _279
REMARK  113  A    between atoms: _278  and  _281
REMARK  114  A    between atoms: _281  and  _282
REMARK  115  A    between atoms: _286  and  _287
REMARK  116  A    between atoms: _292  and  _294
REMARK  117  A    between atoms: _294  and  _295
REMARK  118  A    between atoms: _297  and  _299
REMARK  119  A    between atoms: _299  and  _300
REMARK  120  A    between atoms: _299  and  _302
REMARK  121  A    between atoms: _302  and  _303
REMARK  122  A    between atoms: _309  and  _310
REMARK  123  A    between atoms: _315  and  _317
REMARK  124  A    between atoms: _317  and  _318
REMARK  125  A    between atoms: _317  and  _320
REMARK  126  A    between atoms: _320  and  _321
REMARK  127  A    between atoms: _324  and  _326
REMARK  128  A    between atoms: _326  and  _327
REMARK  129  A    between atoms: _326  and  _329
REMARK  130  A    between atoms: _329  and  _330
REMARK  131  A    between atoms: _330  and  _331
REMARK  132  A    between atoms: _331  and  _332
REMARK  133  A    between atoms: _341  and  _343
REMARK  134  A    between atoms: _343  and  _344
REMARK  135  A    between atoms: _343  and  _346
REMARK  136  A    between atoms: _346  and  _347
REMARK  137  A    between atoms: _349  and  _351
REMARK  138  A    between atoms: _351  and  _352
REMARK  139  A    between atoms: _351  and  _354
REMARK  140  A    between atoms: _354  and  _355
REMARK  141  A    between atoms: _360  and  _361
REMARK  142  A    between atoms: _363  and  _365
REMARK  143  A    between atoms: _365  and  _366
REMARK  144  A    between atoms: _365  and  _368
REMARK  145  A    between atoms: _368  and  _369
REMARK  146  A    between atoms: _374  and  _376
REMARK  147  A    between atoms: _376  and  _377
REMARK  148  A    between atoms: _376  and  _379
REMARK  149  A    between atoms: _379  and  _380
REMARK  150  A    between atoms: _380  and  _381
REMARK  151  A    between atoms: _386  and  _388
REMARK  152  A    between atoms: _388  and  _389
REMARK  153  A    between atoms: _388  and  _391
REMARK  154  A    between atoms: _391  and  _392
REMARK  155  A    between atoms: _395  and  _397
REMARK  156  A    between atoms: _397  and  _398
REMARK  157  A    between atoms: _401  and  _403
REMARK  158  A    between atoms: _403  and  _404
REMARK  159  A    between atoms: _407  and  _409
REMARK  160  A    between atoms: _409  and  _410
REMARK  161  A    between atoms: _409  and  _412
REMARK  162  A    between atoms: _412  and  _413
REMARK  163  A    between atoms: _413  and  _414
REMARK  164  A    between atoms: _416  and  _418
REMARK  165  A    between atoms: _418  and  _419
REMARK  166  A    between atoms: _418  and  _421
REMARK  167  A    between atoms: _421  and  _422
REMARK  168  A    between atoms: _422  and  _423
REMARK  169  A    between atoms: _423  and  _424
REMARK  170  A    between atoms: _433  and  _435
REMARK  171  A    between atoms: _435  and  _436
REMARK  172  A    between atoms: _435  and  _438
REMARK  173  A    between atoms: _438  and  _439
REMARK  174  A    between atoms: _439  and  _440
REMARK  175  A    between atoms: _445  and  _447
REMARK  176  A    between atoms: _447  and  _448
REMARK  177  A    between atoms: _450  and  _452
REMARK  178  A    between atoms: _452  and  _453
REMARK  179  A    between atoms: _452  and  _455
REMARK  180  A    between atoms: _455  and  _456
REMARK  181  A    between atoms: _459  and  _461
REMARK  182  A    between atoms: _461  and  _462
REMARK  183  A    between atoms: _461  and  _464
REMARK  184  A    between atoms: _464  and  _465
REMARK  185  A    between atoms: _465  and  _466
REMARK  186  A    between atoms: _469  and  _471
REMARK  187  A    between atoms: _471  and  _472
REMARK  188  A    between atoms: _471  and  _474
REMARK  189  A    between atoms: _474  and  _475
REMARK  190  A    between atoms: _475  and  _476
REMARK  191  A    between atoms: _479  and  _481
REMARK  192  A    between atoms: _481  and  _482
REMARK  193  A    between atoms: _481  and  _484
REMARK  194  A    between atoms: _484  and  _485
REMARK  195  A    between atoms: _488  and  _490
REMARK  196  A    between atoms: _490  and  _491
REMARK  197  A    between atoms: _490  and  _493
REMARK  198  A    between atoms: _493  and  _494
REMARK  199  A    between atoms: _494  and  _495
REMARK  200  A    between atoms: _495  and  _496
REMARK  201  A    between atoms: _505  and  _507
REMARK  202  A    between atoms: _507  and  _508
REMARK  203  A    between atoms: _507  and  _510
REMARK  204  A    between atoms: _510  and  _511
REMARK  205  A    between atoms: _514  and  _516
REMARK  206  A    between atoms: _516  and  _517
REMARK  207  A    between atoms: _520  and  _522
REMARK  208  A    between atoms: _522  and  _523
REMARK  209  A    between atoms: _522  and  _525
REMARK  210  A    between atoms: _528  and  _530
REMARK  211  A    between atoms: _530  and  _531
REMARK  212  A    between atoms: _530  and  _533
REMARK  213  A    between atoms: _533  and  _534
REMARK  214  A    between atoms: _537  and  _539
REMARK  215  A    between atoms: _539  and  _540
REMARK  216  A    between atoms: _539  and  _542
REMARK  217  A    between atoms: _542  and  _543
REMARK  218  A    between atoms: _548  and  _549
REMARK                            x       y       z     vdW  Elec       q    Type
REMARK                         _______ _______ _______ _____ _____    ______ ____
ROOT
ATOM      1  O   HOH     1     -18.392   5.426 -22.515  0.00  0.00    +0.000 OA
ENDROOT
TORSDOF 0
REMARK  Name = ../refined-set-2016/2hw2/2hw2_pocket.pdb
REMARK  218 active torsions:
REMARK  status: ('A' for Active; 'I' for Inactive)
REMARK    1  A    between atoms: _2  and  _3
REMARK    2  A    between atoms: _8  and  _10
REMARK    3  A    between atoms: _10  and  _11
REMARK    4  A    between atoms: _10  and  _13
REMARK    5  A    between atoms: _13  and  _14
REMARK    6  A    between atoms: _20  and  _22
REMARK    7  A    between atoms: _22  and  _23
REMARK    8  A    between atoms: _25  and  _27
REMARK    9  A    between atoms: _27  and  _28
REMARK   10  A    between atoms: _27  and  _30
REMARK   11  A    between atoms: _30  and  _31
REMARK   12  A    between atoms: _33  and  _35
REMARK   13  A    between atoms: _35  and  _36
REMARK   14  A    between atoms: _35  and  _38
REMARK   15  A    between atoms: _38  and  _39
REMARK   16  A    between atoms: _44  and  _46
REMARK   17  A    between atoms: _46  and  _47
REMARK   18  A    between atoms: _46  and  _49
REMARK   19  A    between atoms: _49  and  _50
REMARK   20  A    between atoms: _56  and  _58
REMARK   21  A    between atoms: _58  and  _59
REMARK   22  A    between atoms: _58  and  _61
REMARK   23  A    between atoms: _61  and  _62
REMARK   24  A    between atoms: _62  and  _63
REMARK   25  A    between atoms: _66  and  _68
REMARK   26  A    between atoms: _68  and  _69
REMARK   27  A    between atoms: _68  and  _71
REMARK   28  A    between atoms: _71  and  _72
REMARK   29  A    between atoms: _72  and  _73
REMARK   30  A    between atoms: _75  and  _77
REMARK   31  A    between atoms: _77  and  _78
REMARK   32  A    between atoms: _77  and  _80
REMARK   33  A    between atoms: _80  and  _81
REMARK   34  A    between atoms: _86  and  _87
REMARK   35  A    between atoms: _89  and  _91
REMARK   36  A    between atoms: _91  and  _92
REMARK   37  A    between atoms: _91  and  _94
REMARK   38  A    between atoms: _94  and  _95
REMARK   39  A    between atoms: _98  and  _100
REMARK   40  A    between atoms: _100  and  _101
REMARK   41  A    between atoms: _100  and  _103
REMARK   42  A    between atoms: _103  and  _104
REMARK   43  A    between atoms: _107  and  _109
REMARK   44  A    between atoms: _109  and  _110
REMARK   45  A    between atoms: _109  and  _112
REMARK   46  A    between atoms: _112  and  _113
REMARK   47  A    between atoms: _116  and  _118
REMARK   48  A    between atoms: _118  and  _119
REMARK   49  A    between atoms: _118  and  _121
REMARK   50  A    between atoms: _121  and  _122
REMARK   51  A    between atoms: _125  and  _127
REMARK   52  A    between atoms: _127  and  _128
REMARK   53  A    between atoms: _131  and  _133
REMARK   54  A    between atoms: _133  and  _134
REMARK   55  A    between atoms: _137  and  _139
REMARK   56  A    between atoms: _139  and  _140
REMARK   57  A    between atoms: _139  and  _142
REMARK   58  A    between atoms: _145  and  _147
REMARK   59  A    between atoms: _147  and  _148
REMARK   60  A    between atoms: _147  and  _150
REMARK   61  A    between atoms: _150  and  _151
REMARK   62  A    between atoms: _161  and  _163
REMARK   63  A    between atoms: _163  and  _164
REMARK   64  A    between atoms: _166  and  _168
REMARK   65  A    between atoms: _168  and  _169
REMARK   66  A    between atoms: _172  and  _174
REMARK   67  A    between atoms: _174  and  _175
REMARK   68  A    between atoms: _174  and  _177
REMARK   69  A    between atoms: _177  and  _178
REMARK   70  A    between atoms: _178  and  _179
REMARK   71  A    between atoms: _182  and  _184
REMARK   72  A    between atoms: _184  and  _185
REMARK   73  A    between atoms: _184  and  _187
REMARK   74  A    between atoms: _187  and  _188
REMARK   75  A    between atoms: _191  and  _193
REMARK   76  A    between atoms: _193  and  _194
REMARK   77  A    between atoms: _197  and  _199
REMARK   78  A    between atoms: _199  and  _200
REMARK   79  A    between atoms: _199  and  _202
REMARK   80  A    between atoms: _202  and  _203
REMARK   81  A    between atoms: _207  and  _208
REMARK   82  A    between atoms: _213  and  _215
REMARK   83  A    between atoms: _215  and  _216
REMARK   84  A    between atoms: _215  and  _218
REMARK   85  A    between atoms: _218  and  _219
REMARK   86  A    between atoms: _224  and  _226
REMARK   87  A    between atoms: _226  and  _227
REMARK   88  A    between atoms: _226  and  _229
REMARK   89  A    between atoms: _232  and  _234
REMARK   90  A    between atoms: _234  and  _235
REMARK   91  A    between atoms: _234  and  _237
REMARK   92  A    between atoms: _237  and  _238
REMARK   93  A    between atoms: _241  and  _243
REMARK   94  A    between atoms: _243  and  _244
REMARK   95  A    between atoms: _243  and  _246
REMARK   96  A    between atoms: _246  and  _247
REMARK   97  A    between atoms: _250  and  _252
REMARK   98  A    between atoms: _252  and  _253
REMARK   99  A    between atoms: _252  and  _255
REMARK  100  A    between atoms: _255  and  _256
REMARK  101  A    between atoms: _256  and  _257
REMARK  102  A    between atoms: _257  and  _258
REMARK  103  A    between atoms: _258  and  _259
REMARK  104  A    between atoms: _263  and  _265
REMARK  105  A    between atoms: _265  and  _266
REMARK  106  A    between atoms: _265  and  _268
REMARK  107  A    between atoms: _268  and  _269
REMARK  108  A    between atoms: _269  and  _270
REMARK  109  A    between atoms: _270  and  _271
REMARK  110  A    between atoms: _271  and  _272
REMARK  111  A    between atoms: _276  and  _278
REMARK  112  A    between atoms: _278  and  _279
REMARK  113  A    between atoms: _278  and  _281
REMARK  114  A    between atoms: _281  and  _282
REMARK  115  A    between atoms: _286  and  _287
REMARK  116  A    between atoms: _292  and  _294
REMARK  117  A    between atoms: _294  and  _295
REMARK  118  A    between atoms: _297  and  _299
REMARK  119  A    between atoms: _299  and  _300
REMARK  120  A    between atoms: _299  and  _302
REMARK  121  A    between atoms: _302  and  _303
REMARK  122  A    between atoms: _309  and  _310
REMARK  123  A    between atoms: _315  and  _317
REMARK  124  A    between atoms: _317  and  _318
REMARK  125  A    between atoms: _317  and  _320
REMARK  126  A    between atoms: _320  and  _321
REMARK  127  A    between atoms: _324  and  _326
REMARK  128  A    between atoms: _326  and  _327
REMARK  129  A    between atoms: _326  and  _329
REMARK  130  A    between atoms: _329  and  _330
REMARK  131  A    between atoms: _330  and  _331
REMARK  132  A    between atoms: _331  and  _332
REMARK  133  A    between atoms: _341  and  _343
REMARK  134  A    between atoms: _343  and  _344
REMARK  135  A    between atoms: _343  and  _346
REMARK  136  A    between atoms: _346  and  _347
REMARK  137  A    between atoms: _349  and  _351
REMARK  138  A    between atoms: _351  and  _352
REMARK  139  A    between atoms: _351  and  _354
REMARK  140  A    between atoms: _354  and  _355
REMARK  141  A    between atoms: _360  and  _361
REMARK  142  A    between atoms: _363  and  _365
REMARK  143  A    between atoms: _365  and  _366
REMARK  144  A    between atoms: _365  and  _368
REMARK  145  A    between atoms: _368  and  _369
REMARK  146  A    between atoms: _374  and  _376
REMARK  147  A    between atoms: _376  and  _377
REMARK  148  A    between atoms: _376  and  _379
REMARK  149  A    between atoms: _379  and  _380
REMARK  150  A    between atoms: _380  and  _381
REMARK  151  A    between atoms: _386  and  _388
REMARK  152  A    between atoms: _388  and  _389
REMARK  153  A    between atoms: _388  and  _391
REMARK  154  A    between atoms: _391  and  _392
REMARK  155  A    between atoms: _395  and  _397
REMARK  156  A    between atoms: _397  and  _398
REMARK  157  A    between atoms: _401  and  _403
REMARK  158  A    between atoms: _403  and  _404
REMARK  159  A    between atoms: _407  and  _409
REMARK  160  A    between atoms: _409  and  _410
REMARK  161  A    between atoms: _409  and  _412
REMARK  162  A    between atoms: _412  and  _413
REMARK  163  A    between atoms: _413  and  _414
REMARK  164  A    between atoms: _416  and  _418
REMARK  165  A    between atoms: _418  and  _419
REMARK  166  A    between atoms: _418  and  _421
REMARK  167  A    between atoms: _421  and  _422
REMARK  168  A    between atoms: _422  and  _423
REMARK  169  A    between atoms: _423  and  _424
REMARK  170  A    between atoms: _433  and  _435
REMARK  171  A    between atoms: _435  and  _436
REMARK  172  A    between atoms: _435  and  _438
REMARK  173  A    between atoms: _438  and  _439
REMARK  174  A    between atoms: _439  and  _440
REMARK  175  A    between atoms: _445  and  _447
REMARK  176  A    between atoms: _447  and  _448
REMARK  177  A    between atoms: _450  and  _452
REMARK  178  A    between atoms: _452  and  _453
REMARK  179  A    between atoms: _452  and  _455
REMARK  180  A    between atoms: _455  and  _456
REMARK  181  A    between atoms: _459  and  _461
REMARK  182  A    between atoms: _461  and  _462
REMARK  183  A    between atoms: _461  and  _464
REMARK  184  A    between atoms: _464  and  _465
REMARK  185  A    between atoms: _465  and  _466
REMARK  186  A    between atoms: _469  and  _471
REMARK  187  A    between atoms: _471  and  _472
REMARK  188  A    between atoms: _471  and  _474
REMARK  189  A    between atoms: _474  and  _475
REMARK  190  A    between atoms: _475  and  _476
REMARK  191  A    between atoms: _479  and  _481
REMARK  192  A    between atoms: _481  and  _482
REMARK  193  A    between atoms: _481  and  _484
REMARK  194  A    between atoms: _484  and  _485
REMARK  195  A    between atoms: _488  and  _490
REMARK  196  A    between atoms: _490  and  _491
REMARK  197  A    between atoms: _490  and  _493
REMARK  198  A    between atoms: _493  and  _494
REMARK  199  A    between atoms: _494  and  _495
REMARK  200  A    between atoms: _495  and  _496
REMARK  201  A    between atoms: _505  and  _507
REMARK  202  A    between atoms: _507  and  _508
REMARK  203  A    between atoms: _507  and  _510
REMARK  204  A    between atoms: _510  and  _511
REMARK  205  A    between atoms: _514  and  _516
REMARK  206  A    between atoms: _516  and  _517
REMARK  207  A    between atoms: _520  and  _522
REMARK  208  A    between atoms: _522  and  _523
REMARK  209  A    between atoms: _522  and  _525
REMARK  210  A    between atoms: _528  and  _530
REMARK  211  A    between atoms: _530  and  _531
REMARK  212  A    between atoms: _530  and  _533
REMARK  213  A    between atoms: _533  and  _534
REMARK  214  A    between atoms: _537  and  _539
REMARK  215  A    between atoms: _539  and  _540
REMARK  216  A    between atoms: _539  and  _542
REMARK  217  A    between atoms: _542  and  _543
REMARK  218  A    between atoms: _548  and  _549
REMARK                            x       y       z     vdW  Elec       q    Type
REMARK                         _______ _______ _______ _____ _____    ______ ____
ROOT
ATOM      1  O   HOH     1      -7.869   2.105 -28.557  0.00  0.00    +0.000 OA
ENDROOT
TORSDOF 0
REMARK  Name = ../refined-set-2016/2hw2/2hw2_pocket.pdb
REMARK  218 active torsions:
REMARK  status: ('A' for Active; 'I' for Inactive)
REMARK    1  A    between atoms: _2  and  _3
REMARK    2  A    between atoms: _8  and  _10
REMARK    3  A    between atoms: _10  and  _11
REMARK    4  A    between atoms: _10  and  _13
REMARK    5  A    between atoms: _13  and  _14
REMARK    6  A    between atoms: _20  and  _22
REMARK    7  A    between atoms: _22  and  _23
REMARK    8  A    between atoms: _25  and  _27
REMARK    9  A    between atoms: _27  and  _28
REMARK   10  A    between atoms: _27  and  _30
REMARK   11  A    between atoms: _30  and  _31
REMARK   12  A    between atoms: _33  and  _35
REMARK   13  A    between atoms: _35  and  _36
REMARK   14  A    between atoms: _35  and  _38
REMARK   15  A    between atoms: _38  and  _39
REMARK   16  A    between atoms: _44  and  _46
REMARK   17  A    between atoms: _46  and  _47
REMARK   18  A    between atoms: _46  and  _49
REMARK   19  A    between atoms: _49  and  _50
REMARK   20  A    between atoms: _56  and  _58
REMARK   21  A    between atoms: _58  and  _59
REMARK   22  A    between atoms: _58  and  _61
REMARK   23  A    between atoms: _61  and  _62
REMARK   24  A    between atoms: _62  and  _63
REMARK   25  A    between atoms: _66  and  _68
REMARK   26  A    between atoms: _68  and  _69
REMARK   27  A    between atoms: _68  and  _71
REMARK   28  A    between atoms: _71  and  _72
REMARK   29  A    between atoms: _72  and  _73
REMARK   30  A    between atoms: _75  and  _77
REMARK   31  A    between atoms: _77  and  _78
REMARK   32  A    between atoms: _77  and  _80
REMARK   33  A    between atoms: _80  and  _81
REMARK   34  A    between atoms: _86  and  _87
REMARK   35  A    between atoms: _89  and  _91
REMARK   36  A    between atoms: _91  and  _92
REMARK   37  A    between atoms: _91  and  _94
REMARK   38  A    between atoms: _94  and  _95
REMARK   39  A    between atoms: _98  and  _100
REMARK   40  A    between atoms: _100  and  _101
REMARK   41  A    between atoms: _100  and  _103
REMARK   42  A    between atoms: _103  and  _104
REMARK   43  A    between atoms: _107  and  _109
REMARK   44  A    between atoms: _109  and  _110
REMARK   45  A    between atoms: _109  and  _112
REMARK   46  A    between atoms: _112  and  _113
REMARK   47  A    between atoms: _116  and  _118
REMARK   48  A    between atoms: _118  and  _119
REMARK   49  A    between atoms: _118  and  _121
REMARK   50  A    between atoms: _121  and  _122
REMARK   51  A    between atoms: _125  and  _127
REMARK   52  A    between atoms: _127  and  _128
REMARK   53  A    between atoms: _131  and  _133
REMARK   54  A    between atoms: _133  and  _134
REMARK   55  A    between atoms: _137  and  _139
REMARK   56  A    between atoms: _139  and  _140
REMARK   57  A    between atoms: _139  and  _142
REMARK   58  A    between atoms: _145  and  _147
REMARK   59  A    between atoms: _147  and  _148
REMARK   60  A    between atoms: _147  and  _150
REMARK   61  A    between atoms: _150  and  _151
REMARK   62  A    between atoms: _161  and  _163
REMARK   63  A    between atoms: _163  and  _164
REMARK   64  A    between atoms: _166  and  _168
REMARK   65  A    between atoms: _168  and  _169
REMARK   66  A    between atoms: _172  and  _174
REMARK   67  A    between atoms: _174  and  _175
REMARK   68  A    between atoms: _174  and  _177
REMARK   69  A    between atoms: _177  and  _178
REMARK   70  A    between atoms: _178  and  _179
REMARK   71  A    between atoms: _182  and  _184
REMARK   72  A    between atoms: _184  and  _185
REMARK   73  A    between atoms: _184  and  _187
REMARK   74  A    between atoms: _187  and  _188
REMARK   75  A    between atoms: _191  and  _193
REMARK   76  A    between atoms: _193  and  _194
REMARK   77  A    between atoms: _197  and  _199
REMARK   78  A    between atoms: _199  and  _200
REMARK   79  A    between atoms: _199  and  _202
REMARK   80  A    between atoms: _202  and  _203
REMARK   81  A    between atoms: _207  and  _208
REMARK   82  A    between atoms: _213  and  _215
REMARK   83  A    between atoms: _215  and  _216
REMARK   84  A    between atoms: _215  and  _218
REMARK   85  A    between atoms: _218  and  _219
REMARK   86  A    between atoms: _224  and  _226
REMARK   87  A    between atoms: _226  and  _227
REMARK   88  A    between atoms: _226  and  _229
REMARK   89  A    between atoms: _232  and  _234
REMARK   90  A    between atoms: _234  and  _235
REMARK   91  A    between atoms: _234  and  _237
REMARK   92  A    between atoms: _237  and  _238
REMARK   93  A    between atoms: _241  and  _243
REMARK   94  A    between atoms: _243  and  _244
REMARK   95  A    between atoms: _243  and  _246
REMARK   96  A    between atoms: _246  and  _247
REMARK   97  A    between atoms: _250  and  _252
REMARK   98  A    between atoms: _252  and  _253
REMARK   99  A    between atoms: _252  and  _255
REMARK  100  A    between atoms: _255  and  _256
REMARK  101  A    between atoms: _256  and  _257
REMARK  102  A    between atoms: _257  and  _258
REMARK  103  A    between atoms: _258  and  _259
REMARK  104  A    between atoms: _263  and  _265
REMARK  105  A    between atoms: _265  and  _266
REMARK  106  A    between atoms: _265  and  _268
REMARK  107  A    between atoms: _268  and  _269
REMARK  108  A    between atoms: _269  and  _270
REMARK  109  A    between atoms: _270  and  _271
REMARK  110  A    between atoms: _271  and  _272
REMARK  111  A    between atoms: _276  and  _278
REMARK  112  A    between atoms: _278  and  _279
REMARK  113  A    between atoms: _278  and  _281
REMARK  114  A    between atoms: _281  and  _282
REMARK  115  A    between atoms: _286  and  _287
REMARK  116  A    between atoms: _292  and  _294
REMARK  117  A    between atoms: _294  and  _295
REMARK  118  A    between atoms: _297  and  _299
REMARK  119  A    between atoms: _299  and  _300
REMARK  120  A    between atoms: _299  and  _302
REMARK  121  A    between atoms: _302  and  _303
REMARK  122  A    between atoms: _309  and  _310
REMARK  123  A    between atoms: _315  and  _317
REMARK  124  A    between atoms: _317  and  _318
REMARK  125  A    between atoms: _317  and  _320
REMARK  126  A    between atoms: _320  and  _321
REMARK  127  A    between atoms: _324  and  _326
REMARK  128  A    between atoms: _326  and  _327
REMARK  129  A    between atoms: _326  and  _329
REMARK  130  A    between atoms: _329  and  _330
REMARK  131  A    between atoms: _330  and  _331
REMARK  132  A    between atoms: _331  and  _332
REMARK  133  A    between atoms: _341  and  _343
REMARK  134  A    between atoms: _343  and  _344
REMARK  135  A    between atoms: _343  and  _346
REMARK  136  A    between atoms: _346  and  _347
REMARK  137  A    between atoms: _349  and  _351
REMARK  138  A    between atoms: _351  and  _352
REMARK  139  A    between atoms: _351  and  _354
REMARK  140  A    between atoms: _354  and  _355
REMARK  141  A    between atoms: _360  and  _361
REMARK  142  A    between atoms: _363  and  _365
REMARK  143  A    between atoms: _365  and  _366
REMARK  144  A    between atoms: _365  and  _368
REMARK  145  A    between atoms: _368  and  _369
REMARK  146  A    between atoms: _374  and  _376
REMARK  147  A    between atoms: _376  and  _377
REMARK  148  A    between atoms: _376  and  _379
REMARK  149  A    between atoms: _379  and  _380
REMARK  150  A    between atoms: _380  and  _381
REMARK  151  A    between atoms: _386  and  _388
REMARK  152  A    between atoms: _388  and  _389
REMARK  153  A    between atoms: _388  and  _391
REMARK  154  A    between atoms: _391  and  _392
REMARK  155  A    between atoms: _395  and  _397
REMARK  156  A    between atoms: _397  and  _398
REMARK  157  A    between atoms: _401  and  _403
REMARK  158  A    between atoms: _403  and  _404
REMARK  159  A    between atoms: _407  and  _409
REMARK  160  A    between atoms: _409  and  _410
REMARK  161  A    between atoms: _409  and  _412
REMARK  162  A    between atoms: _412  and  _413
REMARK  163  A    between atoms: _413  and  _414
REMARK  164  A    between atoms: _416  and  _418
REMARK  165  A    between atoms: _418  and  _419
REMARK  166  A    between atoms: _418  and  _421
REMARK  167  A    between atoms: _421  and  _422
REMARK  168  A    between atoms: _422  and  _423
REMARK  169  A    between atoms: _423  and  _424
REMARK  170  A    between atoms: _433  and  _435
REMARK  171  A    between atoms: _435  and  _436
REMARK  172  A    between atoms: _435  and  _438
REMARK  173  A    between atoms: _438  and  _439
REMARK  174  A    between atoms: _439  and  _440
REMARK  175  A    between atoms: _445  and  _447
REMARK  176  A    between atoms: _447  and  _448
REMARK  177  A    between atoms: _450  and  _452
REMARK  178  A    between atoms: _452  and  _453
REMARK  179  A    between atoms: _452  and  _455
REMARK  180  A    between atoms: _455  and  _456
REMARK  181  A    between atoms: _459  and  _461
REMARK  182  A    between atoms: _461  and  _462
REMARK  183  A    between atoms: _461  and  _464
REMARK  184  A    between atoms: _464  and  _465
REMARK  185  A    between atoms: _465  and  _466
REMARK  186  A    between atoms: _469  and  _471
REMARK  187  A    between atoms: _471  and  _472
REMARK  188  A    between atoms: _471  and  _474
REMARK  189  A    between atoms: _474  and  _475
REMARK  190  A    between atoms: _475  and  _476
REMARK  191  A    between atoms: _479  and  _481
REMARK  192  A    between atoms: _481  and  _482
REMARK  193  A    between atoms: _481  and  _484
REMARK  194  A    between atoms: _484  and  _485
REMARK  195  A    between atoms: _488  and  _490
REMARK  196  A    between atoms: _490  and  _491
REMARK  197  A    between atoms: _490  and  _493
REMARK  198  A    between atoms: _493  and  _494
REMARK  199  A    between atoms: _494  and  _495
REMARK  200  A    between atoms: _495  and  _496
REMARK  201  A    between atoms: _505  and  _507
REMARK  202  A    between atoms: _507  and  _508
REMARK  203  A    between atoms: _507  and  _510
REMARK  204  A    between atoms: _510  and  _511
REMARK  205  A    between atoms: _514  and  _516
REMARK  206  A    between atoms: _516  and  _517
REMARK  207  A    between atoms: _520  and  _522
REMARK  208  A    between atoms: _522  and  _523
REMARK  209  A    between atoms: _522  and  _525
REMARK  210  A    between atoms: _528  and  _530
REMARK  211  A    between atoms: _530  and  _531
REMARK  212  A    between atoms: _530  and  _533
REMARK  213  A    between atoms: _533  and  _534
REMARK  214  A    between atoms: _537  and  _539
REMARK  215  A    between atoms: _539  and  _540
REMARK  216  A    between atoms: _539  and  _542
REMARK  217  A    between atoms: _542  and  _543
REMARK  218  A    between atoms: _548  and  _549
REMARK                            x       y       z     vdW  Elec       q    Type
REMARK                         _______ _______ _______ _____ _____    ______ ____
ROOT
ATOM      1  O   HOH     1      -3.310  -0.543 -22.799  0.00  0.00    +0.000 OA
ENDROOT
TORSDOF 0
REMARK  Name = ../refined-set-2016/2hw2/2hw2_pocket.pdb
REMARK  218 active torsions:
REMARK  status: ('A' for Active; 'I' for Inactive)
REMARK    1  A    between atoms: _2  and  _3
REMARK    2  A    between atoms: _8  and  _10
REMARK    3  A    between atoms: _10  and  _11
REMARK    4  A    between atoms: _10  and  _13
REMARK    5  A    between atoms: _13  and  _14
REMARK    6  A    between atoms: _20  and  _22
REMARK    7  A    between atoms: _22  and  _23
REMARK    8  A    between atoms: _25  and  _27
REMARK    9  A    between atoms: _27  and  _28
REMARK   10  A    between atoms: _27  and  _30
REMARK   11  A    between atoms: _30  and  _31
REMARK   12  A    between atoms: _33  and  _35
REMARK   13  A    between atoms: _35  and  _36
REMARK   14  A    between atoms: _35  and  _38
REMARK   15  A    between atoms: _38  and  _39
REMARK   16  A    between atoms: _44  and  _46
REMARK   17  A    between atoms: _46  and  _47
REMARK   18  A    between atoms: _46  and  _49
REMARK   19  A    between atoms: _49  and  _50
REMARK   20  A    between atoms: _56  and  _58
REMARK   21  A    between atoms: _58  and  _59
REMARK   22  A    between atoms: _58  and  _61
REMARK   23  A    between atoms: _61  and  _62
REMARK   24  A    between atoms: _62  and  _63
REMARK   25  A    between atoms: _66  and  _68
REMARK   26  A    between atoms: _68  and  _69
REMARK   27  A    between atoms: _68  and  _71
REMARK   28  A    between atoms: _71  and  _72
REMARK   29  A    between atoms: _72  and  _73
REMARK   30  A    between atoms: _75  and  _77
REMARK   31  A    between atoms: _77  and  _78
REMARK   32  A    between atoms: _77  and  _80
REMARK   33  A    between atoms: _80  and  _81
REMARK   34  A    between atoms: _86  and  _87
REMARK   35  A    between atoms: _89  and  _91
REMARK   36  A    between atoms: _91  and  _92
REMARK   37  A    between atoms: _91  and  _94
REMARK   38  A    between atoms: _94  and  _95
REMARK   39  A    between atoms: _98  and  _100
REMARK   40  A    between atoms: _100  and  _101
REMARK   41  A    between atoms: _100  and  _103
REMARK   42  A    between atoms: _103  and  _104
REMARK   43  A    between atoms: _107  and  _109
REMARK   44  A    between atoms: _109  and  _110
REMARK   45  A    between atoms: _109  and  _112
REMARK   46  A    between atoms: _112  and  _113
REMARK   47  A    between atoms: _116  and  _118
REMARK   48  A    between atoms: _118  and  _119
REMARK   49  A    between atoms: _118  and  _121
REMARK   50  A    between atoms: _121  and  _122
REMARK   51  A    between atoms: _125  and  _127
REMARK   52  A    between atoms: _127  and  _128
REMARK   53  A    between atoms: _131  and  _133
REMARK   54  A    between atoms: _133  and  _134
REMARK   55  A    between atoms: _137  and  _139
REMARK   56  A    between atoms: _139  and  _140
REMARK   57  A    between atoms: _139  and  _142
REMARK   58  A    between atoms: _145  and  _147
REMARK   59  A    between atoms: _147  and  _148
REMARK   60  A    between atoms: _147  and  _150
REMARK   61  A    between atoms: _150  and  _151
REMARK   62  A    between atoms: _161  and  _163
REMARK   63  A    between atoms: _163  and  _164
REMARK   64  A    between atoms: _166  and  _168
REMARK   65  A    between atoms: _168  and  _169
REMARK   66  A    between atoms: _172  and  _174
REMARK   67  A    between atoms: _174  and  _175
REMARK   68  A    between atoms: _174  and  _177
REMARK   69  A    between atoms: _177  and  _178
REMARK   70  A    between atoms: _178  and  _179
REMARK   71  A    between atoms: _182  and  _184
REMARK   72  A    between atoms: _184  and  _185
REMARK   73  A    between atoms: _184  and  _187
REMARK   74  A    between atoms: _187  and  _188
REMARK   75  A    between atoms: _191  and  _193
REMARK   76  A    between atoms: _193  and  _194
REMARK   77  A    between atoms: _197  and  _199
REMARK   78  A    between atoms: _199  and  _200
REMARK   79  A    between atoms: _199  and  _202
REMARK   80  A    between atoms: _202  and  _203
REMARK   81  A    between atoms: _207  and  _208
REMARK   82  A    between atoms: _213  and  _215
REMARK   83  A    between atoms: _215  and  _216
REMARK   84  A    between atoms: _215  and  _218
REMARK   85  A    between atoms: _218  and  _219
REMARK   86  A    between atoms: _224  and  _226
REMARK   87  A    between atoms: _226  and  _227
REMARK   88  A    between atoms: _226  and  _229
REMARK   89  A    between atoms: _232  and  _234
REMARK   90  A    between atoms: _234  and  _235
REMARK   91  A    between atoms: _234  and  _237
REMARK   92  A    between atoms: _237  and  _238
REMARK   93  A    between atoms: _241  and  _243
REMARK   94  A    between atoms: _243  and  _244
REMARK   95  A    between atoms: _243  and  _246
REMARK   96  A    between atoms: _246  and  _247
REMARK   97  A    between atoms: _250  and  _252
REMARK   98  A    between atoms: _252  and  _253
REMARK   99  A    between atoms: _252  and  _255
REMARK  100  A    between atoms: _255  and  _256
REMARK  101  A    between atoms: _256  and  _257
REMARK  102  A    between atoms: _257  and  _258
REMARK  103  A    between atoms: _258  and  _259
REMARK  104  A    between atoms: _263  and  _265
REMARK  105  A    between atoms: _265  and  _266
REMARK  106  A    between atoms: _265  and  _268
REMARK  107  A    between atoms: _268  and  _269
REMARK  108  A    between atoms: _269  and  _270
REMARK  109  A    between atoms: _270  and  _271
REMARK  110  A    between atoms: _271  and  _272
REMARK  111  A    between atoms: _276  and  _278
REMARK  112  A    between atoms: _278  and  _279
REMARK  113  A    between atoms: _278  and  _281
REMARK  114  A    between atoms: _281  and  _282
REMARK  115  A    between atoms: _286  and  _287
REMARK  116  A    between atoms: _292  and  _294
REMARK  117  A    between atoms: _294  and  _295
REMARK  118  A    between atoms: _297  and  _299
REMARK  119  A    between atoms: _299  and  _300
REMARK  120  A    between atoms: _299  and  _302
REMARK  121  A    between atoms: _302  and  _303
REMARK  122  A    between atoms: _309  and  _310
REMARK  123  A    between atoms: _315  and  _317
REMARK  124  A    between atoms: _317  and  _318
REMARK  125  A    between atoms: _317  and  _320
REMARK  126  A    between atoms: _320  and  _321
REMARK  127  A    between atoms: _324  and  _326
REMARK  128  A    between atoms: _326  and  _327
REMARK  129  A    between atoms: _326  and  _329
REMARK  130  A    between atoms: _329  and  _330
REMARK  131  A    between atoms: _330  and  _331
REMARK  132  A    between atoms: _331  and  _332
REMARK  133  A    between atoms: _341  and  _343
REMARK  134  A    between atoms: _343  and  _344
REMARK  135  A    between atoms: _343  and  _346
REMARK  136  A    between atoms: _346  and  _347
REMARK  137  A    between atoms: _349  and  _351
REMARK  138  A    between atoms: _351  and  _352
REMARK  139  A    between atoms: _351  and  _354
REMARK  140  A    between atoms: _354  and  _355
REMARK  141  A    between atoms: _360  and  _361
REMARK  142  A    between atoms: _363  and  _365
REMARK  143  A    between atoms: _365  and  _366
REMARK  144  A    between atoms: _365  and  _368
REMARK  145  A    between atoms: _368  and  _369
REMARK  146  A    between atoms: _374  and  _376
REMARK  147  A    between atoms: _376  and  _377
REMARK  148  A    between atoms: _376  and  _379
REMARK  149  A    between atoms: _379  and  _380
REMARK  150  A    between atoms: _380  and  _381
REMARK  151  A    between atoms: _386  and  _388
REMARK  152  A    between atoms: _388  and  _389
REMARK  153  A    between atoms: _388  and  _391
REMARK  154  A    between atoms: _391  and  _392
REMARK  155  A    between atoms: _395  and  _397
REMARK  156  A    between atoms: _397  and  _398
REMARK  157  A    between atoms: _401  and  _403
REMARK  158  A    between atoms: _403  and  _404
REMARK  159  A    between atoms: _407  and  _409
REMARK  160  A    between atoms: _409  and  _410
REMARK  161  A    between atoms: _409  and  _412
REMARK  162  A    between atoms: _412  and  _413
REMARK  163  A    between atoms: _413  and  _414
REMARK  164  A    between atoms: _416  and  _418
REMARK  165  A    between atoms: _418  and  _419
REMARK  166  A    between atoms: _418  and  _421
REMARK  167  A    between atoms: _421  and  _422
REMARK  168  A    between atoms: _422  and  _423
REMARK  169  A    between atoms: _423  and  _424
REMARK  170  A    between atoms: _433  and  _435
REMARK  171  A    between atoms: _435  and  _436
REMARK  172  A    between atoms: _435  and  _438
REMARK  173  A    between atoms: _438  and  _439
REMARK  174  A    between atoms: _439  and  _440
REMARK  175  A    between atoms: _445  and  _447
REMARK  176  A    between atoms: _447  and  _448
REMARK  177  A    between atoms: _450  and  _452
REMARK  178  A    between atoms: _452  and  _453
REMARK  179  A    between atoms: _452  and  _455
REMARK  180  A    between atoms: _455  and  _456
REMARK  181  A    between atoms: _459  and  _461
REMARK  182  A    between atoms: _461  and  _462
REMARK  183  A    between atoms: _461  and  _464
REMARK  184  A    between atoms: _464  and  _465
REMARK  185  A    between atoms: _465  and  _466
REMARK  186  A    between atoms: _469  and  _471
REMARK  187  A    between atoms: _471  and  _472
REMARK  188  A    between atoms: _471  and  _474
REMARK  189  A    between atoms: _474  and  _475
REMARK  190  A    between atoms: _475  and  _476
REMARK  191  A    between atoms: _479  and  _481
REMARK  192  A    between atoms: _481  and  _482
REMARK  193  A    between atoms: _481  and  _484
REMARK  194  A    between atoms: _484  and  _485
REMARK  195  A    between atoms: _488  and  _490
REMARK  196  A    between atoms: _490  and  _491
REMARK  197  A    between atoms: _490  and  _493
REMARK  198  A    between atoms: _493  and  _494
REMARK  199  A    between atoms: _494  and  _495
REMARK  200  A    between atoms: _495  and  _496
REMARK  201  A    between atoms: _505  and  _507
REMARK  202  A    between atoms: _507  and  _508
REMARK  203  A    between atoms: _507  and  _510
REMARK  204  A    between atoms: _510  and  _511
REMARK  205  A    between atoms: _514  and  _516
REMARK  206  A    between atoms: _516  and  _517
REMARK  207  A    between atoms: _520  and  _522
REMARK  208  A    between atoms: _522  and  _523
REMARK  209  A    between atoms: _522  and  _525
REMARK  210  A    between atoms: _528  and  _530
REMARK  211  A    between atoms: _530  and  _531
REMARK  212  A    between atoms: _530  and  _533
REMARK  213  A    between atoms: _533  and  _534
REMARK  214  A    between atoms: _537  and  _539
REMARK  215  A    between atoms: _539  and  _540
REMARK  216  A    between atoms: _539  and  _542
REMARK  217  A    between atoms: _542  and  _543
REMARK  218  A    between atoms: _548  and  _549
REMARK                            x       y       z     vdW  Elec       q    Type
REMARK                         _______ _______ _______ _____ _____    ______ ____
ROOT
ATOM      1  O   HOH     1     -10.622  18.884 -16.996  0.00  0.00    +0.000 OA
ENDROOT
TORSDOF 0
REMARK  Name = ../refined-set-2016/2hw2/2hw2_pocket.pdb
REMARK  218 active torsions:
REMARK  status: ('A' for Active; 'I' for Inactive)
REMARK    1  A    between atoms: _2  and  _3
REMARK    2  A    between atoms: _8  and  _10
REMARK    3  A    between atoms: _10  and  _11
REMARK    4  A    between atoms: _10  and  _13
REMARK    5  A    between atoms: _13  and  _14
REMARK    6  A    between atoms: _20  and  _22
REMARK    7  A    between atoms: _22  and  _23
REMARK    8  A    between atoms: _25  and  _27
REMARK    9  A    between atoms: _27  and  _28
REMARK   10  A    between atoms: _27  and  _30
REMARK   11  A    between atoms: _30  and  _31
REMARK   12  A    between atoms: _33  and  _35
REMARK   13  A    between atoms: _35  and  _36
REMARK   14  A    between atoms: _35  and  _38
REMARK   15  A    between atoms: _38  and  _39
REMARK   16  A    between atoms: _44  and  _46
REMARK   17  A    between atoms: _46  and  _47
REMARK   18  A    between atoms: _46  and  _49
REMARK   19  A    between atoms: _49  and  _50
REMARK   20  A    between atoms: _56  and  _58
REMARK   21  A    between atoms: _58  and  _59
REMARK   22  A    between atoms: _58  and  _61
REMARK   23  A    between atoms: _61  and  _62
REMARK   24  A    between atoms: _62  and  _63
REMARK   25  A    between atoms: _66  and  _68
REMARK   26  A    between atoms: _68  and  _69
REMARK   27  A    between atoms: _68  and  _71
REMARK   28  A    between atoms: _71  and  _72
REMARK   29  A    between atoms: _72  and  _73
REMARK   30  A    between atoms: _75  and  _77
REMARK   31  A    between atoms: _77  and  _78
REMARK   32  A    between atoms: _77  and  _80
REMARK   33  A    between atoms: _80  and  _81
REMARK   34  A    between atoms: _86  and  _87
REMARK   35  A    between atoms: _89  and  _91
REMARK   36  A    between atoms: _91  and  _92
REMARK   37  A    between atoms: _91  and  _94
REMARK   38  A    between atoms: _94  and  _95
REMARK   39  A    between atoms: _98  and  _100
REMARK   40  A    between atoms: _100  and  _101
REMARK   41  A    between atoms: _100  and  _103
REMARK   42  A    between atoms: _103  and  _104
REMARK   43  A    between atoms: _107  and  _109
REMARK   44  A    between atoms: _109  and  _110
REMARK   45  A    between atoms: _109  and  _112
REMARK   46  A    between atoms: _112  and  _113
REMARK   47  A    between atoms: _116  and  _118
REMARK   48  A    between atoms: _118  and  _119
REMARK   49  A    between atoms: _118  and  _121
REMARK   50  A    between atoms: _121  and  _122
REMARK   51  A    between atoms: _125  and  _127
REMARK   52  A    between atoms: _127  and  _128
REMARK   53  A    between atoms: _131  and  _133
REMARK   54  A    between atoms: _133  and  _134
REMARK   55  A    between atoms: _137  and  _139
REMARK   56  A    between atoms: _139  and  _140
REMARK   57  A    between atoms: _139  and  _142
REMARK   58  A    between atoms: _145  and  _147
REMARK   59  A    between atoms: _147  and  _148
REMARK   60  A    between atoms: _147  and  _150
REMARK   61  A    between atoms: _150  and  _151
REMARK   62  A    between atoms: _161  and  _163
REMARK   63  A    between atoms: _163  and  _164
REMARK   64  A    between atoms: _166  and  _168
REMARK   65  A    between atoms: _168  and  _169
REMARK   66  A    between atoms: _172  and  _174
REMARK   67  A    between atoms: _174  and  _175
REMARK   68  A    between atoms: _174  and  _177
REMARK   69  A    between atoms: _177  and  _178
REMARK   70  A    between atoms: _178  and  _179
REMARK   71  A    between atoms: _182  and  _184
REMARK   72  A    between atoms: _184  and  _185
REMARK   73  A    between atoms: _184  and  _187
REMARK   74  A    between atoms: _187  and  _188
REMARK   75  A    between atoms: _191  and  _193
REMARK   76  A    between atoms: _193  and  _194
REMARK   77  A    between atoms: _197  and  _199
REMARK   78  A    between atoms: _199  and  _200
REMARK   79  A    between atoms: _199  and  _202
REMARK   80  A    between atoms: _202  and  _203
REMARK   81  A    between atoms: _207  and  _208
REMARK   82  A    between atoms: _213  and  _215
REMARK   83  A    between atoms: _215  and  _216
REMARK   84  A    between atoms: _215  and  _218
REMARK   85  A    between atoms: _218  and  _219
REMARK   86  A    between atoms: _224  and  _226
REMARK   87  A    between atoms: _226  and  _227
REMARK   88  A    between atoms: _226  and  _229
REMARK   89  A    between atoms: _232  and  _234
REMARK   90  A    between atoms: _234  and  _235
REMARK   91  A    between atoms: _234  and  _237
REMARK   92  A    between atoms: _237  and  _238
REMARK   93  A    between atoms: _241  and  _243
REMARK   94  A    between atoms: _243  and  _244
REMARK   95  A    between atoms: _243  and  _246
REMARK   96  A    between atoms: _246  and  _247
REMARK   97  A    between atoms: _250  and  _252
REMARK   98  A    between atoms: _252  and  _253
REMARK   99  A    between atoms: _252  and  _255
REMARK  100  A    between atoms: _255  and  _256
REMARK  101  A    between atoms: _256  and  _257
REMARK  102  A    between atoms: _257  and  _258
REMARK  103  A    between atoms: _258  and  _259
REMARK  104  A    between atoms: _263  and  _265
REMARK  105  A    between atoms: _265  and  _266
REMARK  106  A    between atoms: _265  and  _268
REMARK  107  A    between atoms: _268  and  _269
REMARK  108  A    between atoms: _269  and  _270
REMARK  109  A    between atoms: _270  and  _271
REMARK  110  A    between atoms: _271  and  _272
REMARK  111  A    between atoms: _276  and  _278
REMARK  112  A    between atoms: _278  and  _279
REMARK  113  A    between atoms: _278  and  _281
REMARK  114  A    between atoms: _281  and  _282
REMARK  115  A    between atoms: _286  and  _287
REMARK  116  A    between atoms: _292  and  _294
REMARK  117  A    between atoms: _294  and  _295
REMARK  118  A    between atoms: _297  and  _299
REMARK  119  A    between atoms: _299  and  _300
REMARK  120  A    between atoms: _299  and  _302
REMARK  121  A    between atoms: _302  and  _303
REMARK  122  A    between atoms: _309  and  _310
REMARK  123  A    between atoms: _315  and  _317
REMARK  124  A    between atoms: _317  and  _318
REMARK  125  A    between atoms: _317  and  _320
REMARK  126  A    between atoms: _320  and  _321
REMARK  127  A    between atoms: _324  and  _326
REMARK  128  A    between atoms: _326  and  _327
REMARK  129  A    between atoms: _326  and  _329
REMARK  130  A    between atoms: _329  and  _330
REMARK  131  A    between atoms: _330  and  _331
REMARK  132  A    between atoms: _331  and  _332
REMARK  133  A    between atoms: _341  and  _343
REMARK  134  A    between atoms: _343  and  _344
REMARK  135  A    between atoms: _343  and  _346
REMARK  136  A    between atoms: _346  and  _347
REMARK  137  A    between atoms: _349  and  _351
REMARK  138  A    between atoms: _351  and  _352
REMARK  139  A    between atoms: _351  and  _354
REMARK  140  A    between atoms: _354  and  _355
REMARK  141  A    between atoms: _360  and  _361
REMARK  142  A    between atoms: _363  and  _365
REMARK  143  A    between atoms: _365  and  _366
REMARK  144  A    between atoms: _365  and  _368
REMARK  145  A    between atoms: _368  and  _369
REMARK  146  A    between atoms: _374  and  _376
REMARK  147  A    between atoms: _376  and  _377
REMARK  148  A    between atoms: _376  and  _379
REMARK  149  A    between atoms: _379  and  _380
REMARK  150  A    between atoms: _380  and  _381
REMARK  151  A    between atoms: _386  and  _388
REMARK  152  A    between atoms: _388  and  _389
REMARK  153  A    between atoms: _388  and  _391
REMARK  154  A    between atoms: _391  and  _392
REMARK  155  A    between atoms: _395  and  _397
REMARK  156  A    between atoms: _397  and  _398
REMARK  157  A    between atoms: _401  and  _403
REMARK  158  A    between atoms: _403  and  _404
REMARK  159  A    between atoms: _407  and  _409
REMARK  160  A    between atoms: _409  and  _410
REMARK  161  A    between atoms: _409  and  _412
REMARK  162  A    between atoms: _412  and  _413
REMARK  163  A    between atoms: _413  and  _414
REMARK  164  A    between atoms: _416  and  _418
REMARK  165  A    between atoms: _418  and  _419
REMARK  166  A    between atoms: _418  and  _421
REMARK  167  A    between atoms: _421  and  _422
REMARK  168  A    between atoms: _422  and  _423
REMARK  169  A    between atoms: _423  and  _424
REMARK  170  A    between atoms: _433  and  _435
REMARK  171  A    between atoms: _435  and  _436
REMARK  172  A    between atoms: _435  and  _438
REMARK  173  A    between atoms: _438  and  _439
REMARK  174  A    between atoms: _439  and  _440
REMARK  175  A    between atoms: _445  and  _447
REMARK  176  A    between atoms: _447  and  _448
REMARK  177  A    between atoms: _450  and  _452
REMARK  178  A    between atoms: _452  and  _453
REMARK  179  A    between atoms: _452  and  _455
REMARK  180  A    between atoms: _455  and  _456
REMARK  181  A    between atoms: _459  and  _461
REMARK  182  A    between atoms: _461  and  _462
REMARK  183  A    between atoms: _461  and  _464
REMARK  184  A    between atoms: _464  and  _465
REMARK  185  A    between atoms: _465  and  _466
REMARK  186  A    between atoms: _469  and  _471
REMARK  187  A    between atoms: _471  and  _472
REMARK  188  A    between atoms: _471  and  _474
REMARK  189  A    between atoms: _474  and  _475
REMARK  190  A    between atoms: _475  and  _476
REMARK  191  A    between atoms: _479  and  _481
REMARK  192  A    between atoms: _481  and  _482
REMARK  193  A    between atoms: _481  and  _484
REMARK  194  A    between atoms: _484  and  _485
REMARK  195  A    between atoms: _488  and  _490
REMARK  196  A    between atoms: _490  and  _491
REMARK  197  A    between atoms: _490  and  _493
REMARK  198  A    between atoms: _493  and  _494
REMARK  199  A    between atoms: _494  and  _495
REMARK  200  A    between atoms: _495  and  _496
REMARK  201  A    between atoms: _505  and  _507
REMARK  202  A    between atoms: _507  and  _508
REMARK  203  A    between atoms: _507  and  _510
REMARK  204  A    between atoms: _510  and  _511
REMARK  205  A    between atoms: _514  and  _516
REMARK  206  A    between atoms: _516  and  _517
REMARK  207  A    between atoms: _520  and  _522
REMARK  208  A    between atoms: _522  and  _523
REMARK  209  A    between atoms: _522  and  _525
REMARK  210  A    between atoms: _528  and  _530
REMARK  211  A    between atoms: _530  and  _531
REMARK  212  A    between atoms: _530  and  _533
REMARK  213  A    between atoms: _533  and  _534
REMARK  214  A    between atoms: _537  and  _539
REMARK  215  A    between atoms: _539  and  _540
REMARK  216  A    between atoms: _539  and  _542
REMARK  217  A    between atoms: _542  and  _543
REMARK  218  A    between atoms: _548  and  _549
REMARK                            x       y       z     vdW  Elec       q    Type
REMARK                         _______ _______ _______ _____ _____    ______ ____
ROOT
ATOM      1  O   HOH     1     -17.847   7.442 -26.776  0.00  0.00    +0.000 OA
ENDROOT
TORSDOF 0
REMARK  Name = ../refined-set-2016/2hw2/2hw2_pocket.pdb
REMARK  218 active torsions:
REMARK  status: ('A' for Active; 'I' for Inactive)
REMARK    1  A    between atoms: _2  and  _3
REMARK    2  A    between atoms: _8  and  _10
REMARK    3  A    between atoms: _10  and  _11
REMARK    4  A    between atoms: _10  and  _13
REMARK    5  A    between atoms: _13  and  _14
REMARK    6  A    between atoms: _20  and  _22
REMARK    7  A    between atoms: _22  and  _23
REMARK    8  A    between atoms: _25  and  _27
REMARK    9  A    between atoms: _27  and  _28
REMARK   10  A    between atoms: _27  and  _30
REMARK   11  A    between atoms: _30  and  _31
REMARK   12  A    between atoms: _33  and  _35
REMARK   13  A    between atoms: _35  and  _36
REMARK   14  A    between atoms: _35  and  _38
REMARK   15  A    between atoms: _38  and  _39
REMARK   16  A    between atoms: _44  and  _46
REMARK   17  A    between atoms: _46  and  _47
REMARK   18  A    between atoms: _46  and  _49
REMARK   19  A    between atoms: _49  and  _50
REMARK   20  A    between atoms: _56  and  _58
REMARK   21  A    between atoms: _58  and  _59
REMARK   22  A    between atoms: _58  and  _61
REMARK   23  A    between atoms: _61  and  _62
REMARK   24  A    between atoms: _62  and  _63
REMARK   25  A    between atoms: _66  and  _68
REMARK   26  A    between atoms: _68  and  _69
REMARK   27  A    between atoms: _68  and  _71
REMARK   28  A    between atoms: _71  and  _72
REMARK   29  A    between atoms: _72  and  _73
REMARK   30  A    between atoms: _75  and  _77
REMARK   31  A    between atoms: _77  and  _78
REMARK   32  A    between atoms: _77  and  _80
REMARK   33  A    between atoms: _80  and  _81
REMARK   34  A    between atoms: _86  and  _87
REMARK   35  A    between atoms: _89  and  _91
REMARK   36  A    between atoms: _91  and  _92
REMARK   37  A    between atoms: _91  and  _94
REMARK   38  A    between atoms: _94  and  _95
REMARK   39  A    between atoms: _98  and  _100
REMARK   40  A    between atoms: _100  and  _101
REMARK   41  A    between atoms: _100  and  _103
REMARK   42  A    between atoms: _103  and  _104
REMARK   43  A    between atoms: _107  and  _109
REMARK   44  A    between atoms: _109  and  _110
REMARK   45  A    between atoms: _109  and  _112
REMARK   46  A    between atoms: _112  and  _113
REMARK   47  A    between atoms: _116  and  _118
REMARK   48  A    between atoms: _118  and  _119
REMARK   49  A    between atoms: _118  and  _121
REMARK   50  A    between atoms: _121  and  _122
REMARK   51  A    between atoms: _125  and  _127
REMARK   52  A    between atoms: _127  and  _128
REMARK   53  A    between atoms: _131  and  _133
REMARK   54  A    between atoms: _133  and  _134
REMARK   55  A    between atoms: _137  and  _139
REMARK   56  A    between atoms: _139  and  _140
REMARK   57  A    between atoms: _139  and  _142
REMARK   58  A    between atoms: _145  and  _147
REMARK   59  A    between atoms: _147  and  _148
REMARK   60  A    between atoms: _147  and  _150
REMARK   61  A    between atoms: _150  and  _151
REMARK   62  A    between atoms: _161  and  _163
REMARK   63  A    between atoms: _163  and  _164
REMARK   64  A    between atoms: _166  and  _168
REMARK   65  A    between atoms: _168  and  _169
REMARK   66  A    between atoms: _172  and  _174
REMARK   67  A    between atoms: _174  and  _175
REMARK   68  A    between atoms: _174  and  _177
REMARK   69  A    between atoms: _177  and  _178
REMARK   70  A    between atoms: _178  and  _179
REMARK   71  A    between atoms: _182  and  _184
REMARK   72  A    between atoms: _184  and  _185
REMARK   73  A    between atoms: _184  and  _187
REMARK   74  A    between atoms: _187  and  _188
REMARK   75  A    between atoms: _191  and  _193
REMARK   76  A    between atoms: _193  and  _194
REMARK   77  A    between atoms: _197  and  _199
REMARK   78  A    between atoms: _199  and  _200
REMARK   79  A    between atoms: _199  and  _202
REMARK   80  A    between atoms: _202  and  _203
REMARK   81  A    between atoms: _207  and  _208
REMARK   82  A    between atoms: _213  and  _215
REMARK   83  A    between atoms: _215  and  _216
REMARK   84  A    between atoms: _215  and  _218
REMARK   85  A    between atoms: _218  and  _219
REMARK   86  A    between atoms: _224  and  _226
REMARK   87  A    between atoms: _226  and  _227
REMARK   88  A    between atoms: _226  and  _229
REMARK   89  A    between atoms: _232  and  _234
REMARK   90  A    between atoms: _234  and  _235
REMARK   91  A    between atoms: _234  and  _237
REMARK   92  A    between atoms: _237  and  _238
REMARK   93  A    between atoms: _241  and  _243
REMARK   94  A    between atoms: _243  and  _244
REMARK   95  A    between atoms: _243  and  _246
REMARK   96  A    between atoms: _246  and  _247
REMARK   97  A    between atoms: _250  and  _252
REMARK   98  A    between atoms: _252  and  _253
REMARK   99  A    between atoms: _252  and  _255
REMARK  100  A    between atoms: _255  and  _256
REMARK  101  A    between atoms: _256  and  _257
REMARK  102  A    between atoms: _257  and  _258
REMARK  103  A    between atoms: _258  and  _259
REMARK  104  A    between atoms: _263  and  _265
REMARK  105  A    between atoms: _265  and  _266
REMARK  106  A    between atoms: _265  and  _268
REMARK  107  A    between atoms: _268  and  _269
REMARK  108  A    between atoms: _269  and  _270
REMARK  109  A    between atoms: _270  and  _271
REMARK  110  A    between atoms: _271  and  _272
REMARK  111  A    between atoms: _276  and  _278
REMARK  112  A    between atoms: _278  and  _279
REMARK  113  A    between atoms: _278  and  _281
REMARK  114  A    between atoms: _281  and  _282
REMARK  115  A    between atoms: _286  and  _287
REMARK  116  A    between atoms: _292  and  _294
REMARK  117  A    between atoms: _294  and  _295
REMARK  118  A    between atoms: _297  and  _299
REMARK  119  A    between atoms: _299  and  _300
REMARK  120  A    between atoms: _299  and  _302
REMARK  121  A    between atoms: _302  and  _303
REMARK  122  A    between atoms: _309  and  _310
REMARK  123  A    between atoms: _315  and  _317
REMARK  124  A    between atoms: _317  and  _318
REMARK  125  A    between atoms: _317  and  _320
REMARK  126  A    between atoms: _320  and  _321
REMARK  127  A    between atoms: _324  and  _326
REMARK  128  A    between atoms: _326  and  _327
REMARK  129  A    between atoms: _326  and  _329
REMARK  130  A    between atoms: _329  and  _330
REMARK  131  A    between atoms: _330  and  _331
REMARK  132  A    between atoms: _331  and  _332
REMARK  133  A    between atoms: _341  and  _343
REMARK  134  A    between atoms: _343  and  _344
REMARK  135  A    between atoms: _343  and  _346
REMARK  136  A    between atoms: _346  and  _347
REMARK  137  A    between atoms: _349  and  _351
REMARK  138  A    between atoms: _351  and  _352
REMARK  139  A    between atoms: _351  and  _354
REMARK  140  A    between atoms: _354  and  _355
REMARK  141  A    between atoms: _360  and  _361
REMARK  142  A    between atoms: _363  and  _365
REMARK  143  A    between atoms: _365  and  _366
REMARK  144  A    between atoms: _365  and  _368
REMARK  145  A    between atoms: _368  and  _369
REMARK  146  A    between atoms: _374  and  _376
REMARK  147  A    between atoms: _376  and  _377
REMARK  148  A    between atoms: _376  and  _379
REMARK  149  A    between atoms: _379  and  _380
REMARK  150  A    between atoms: _380  and  _381
REMARK  151  A    between atoms: _386  and  _388
REMARK  152  A    between atoms: _388  and  _389
REMARK  153  A    between atoms: _388  and  _391
REMARK  154  A    between atoms: _391  and  _392
REMARK  155  A    between atoms: _395  and  _397
REMARK  156  A    between atoms: _397  and  _398
REMARK  157  A    between atoms: _401  and  _403
REMARK  158  A    between atoms: _403  and  _404
REMARK  159  A    between atoms: _407  and  _409
REMARK  160  A    between atoms: _409  and  _410
REMARK  161  A    between atoms: _409  and  _412
REMARK  162  A    between atoms: _412  and  _413
REMARK  163  A    between atoms: _413  and  _414
REMARK  164  A    between atoms: _416  and  _418
REMARK  165  A    between atoms: _418  and  _419
REMARK  166  A    between atoms: _418  and  _421
REMARK  167  A    between atoms: _421  and  _422
REMARK  168  A    between atoms: _422  and  _423
REMARK  169  A    between atoms: _423  and  _424
REMARK  170  A    between atoms: _433  and  _435
REMARK  171  A    between atoms: _435  and  _436
REMARK  172  A    between atoms: _435  and  _438
REMARK  173  A    between atoms: _438  and  _439
REMARK  174  A    between atoms: _439  and  _440
REMARK  175  A    between atoms: _445  and  _447
REMARK  176  A    between atoms: _447  and  _448
REMARK  177  A    between atoms: _450  and  _452
REMARK  178  A    between atoms: _452  and  _453
REMARK  179  A    between atoms: _452  and  _455
REMARK  180  A    between atoms: _455  and  _456
REMARK  181  A    between atoms: _459  and  _461
REMARK  182  A    between atoms: _461  and  _462
REMARK  183  A    between atoms: _461  and  _464
REMARK  184  A    between atoms: _464  and  _465
REMARK  185  A    between atoms: _465  and  _466
REMARK  186  A    between atoms: _469  and  _471
REMARK  187  A    between atoms: _471  and  _472
REMARK  188  A    between atoms: _471  and  _474
REMARK  189  A    between atoms: _474  and  _475
REMARK  190  A    between atoms: _475  and  _476
REMARK  191  A    between atoms: _479  and  _481
REMARK  192  A    between atoms: _481  and  _482
REMARK  193  A    between atoms: _481  and  _484
REMARK  194  A    between atoms: _484  and  _485
REMARK  195  A    between atoms: _488  and  _490
REMARK  196  A    between atoms: _490  and  _491
REMARK  197  A    between atoms: _490  and  _493
REMARK  198  A    between atoms: _493  and  _494
REMARK  199  A    between atoms: _494  and  _495
REMARK  200  A    between atoms: _495  and  _496
REMARK  201  A    between atoms: _505  and  _507
REMARK  202  A    between atoms: _507  and  _508
REMARK  203  A    between atoms: _507  and  _510
REMARK  204  A    between atoms: _510  and  _511
REMARK  205  A    between atoms: _514  and  _516
REMARK  206  A    between atoms: _516  and  _517
REMARK  207  A    between atoms: _520  and  _522
REMARK  208  A    between atoms: _522  and  _523
REMARK  209  A    between atoms: _522  and  _525
REMARK  210  A    between atoms: _528  and  _530
REMARK  211  A    between atoms: _530  and  _531
REMARK  212  A    between atoms: _530  and  _533
REMARK  213  A    between atoms: _533  and  _534
REMARK  214  A    between atoms: _537  and  _539
REMARK  215  A    between atoms: _539  and  _540
REMARK  216  A    between atoms: _539  and  _542
REMARK  217  A    between atoms: _542  and  _543
REMARK  218  A    between atoms: _548  and  _549
REMARK                            x       y       z     vdW  Elec       q    Type
REMARK                         _______ _______ _______ _____ _____    ______ ____
ROOT
ATOM      1  O   HOH     1     -14.185   6.715 -24.494  0.00  0.00    +0.000 OA
ENDROOT
TORSDOF 0
REMARK  Name = ../refined-set-2016/2hw2/2hw2_pocket.pdb
REMARK  218 active torsions:
REMARK  status: ('A' for Active; 'I' for Inactive)
REMARK    1  A    between atoms: _2  and  _3
REMARK    2  A    between atoms: _8  and  _10
REMARK    3  A    between atoms: _10  and  _11
REMARK    4  A    between atoms: _10  and  _13
REMARK    5  A    between atoms: _13  and  _14
REMARK    6  A    between atoms: _20  and  _22
REMARK    7  A    between atoms: _22  and  _23
REMARK    8  A    between atoms: _25  and  _27
REMARK    9  A    between atoms: _27  and  _28
REMARK   10  A    between atoms: _27  and  _30
REMARK   11  A    between atoms: _30  and  _31
REMARK   12  A    between atoms: _33  and  _35
REMARK   13  A    between atoms: _35  and  _36
REMARK   14  A    between atoms: _35  and  _38
REMARK   15  A    between atoms: _38  and  _39
REMARK   16  A    between atoms: _44  and  _46
REMARK   17  A    between atoms: _46  and  _47
REMARK   18  A    between atoms: _46  and  _49
REMARK   19  A    between atoms: _49  and  _50
REMARK   20  A    between atoms: _56  and  _58
REMARK   21  A    between atoms: _58  and  _59
REMARK   22  A    between atoms: _58  and  _61
REMARK   23  A    between atoms: _61  and  _62
REMARK   24  A    between atoms: _62  and  _63
REMARK   25  A    between atoms: _66  and  _68
REMARK   26  A    between atoms: _68  and  _69
REMARK   27  A    between atoms: _68  and  _71
REMARK   28  A    between atoms: _71  and  _72
REMARK   29  A    between atoms: _72  and  _73
REMARK   30  A    between atoms: _75  and  _77
REMARK   31  A    between atoms: _77  and  _78
REMARK   32  A    between atoms: _77  and  _80
REMARK   33  A    between atoms: _80  and  _81
REMARK   34  A    between atoms: _86  and  _87
REMARK   35  A    between atoms: _89  and  _91
REMARK   36  A    between atoms: _91  and  _92
REMARK   37  A    between atoms: _91  and  _94
REMARK   38  A    between atoms: _94  and  _95
REMARK   39  A    between atoms: _98  and  _100
REMARK   40  A    between atoms: _100  and  _101
REMARK   41  A    between atoms: _100  and  _103
REMARK   42  A    between atoms: _103  and  _104
REMARK   43  A    between atoms: _107  and  _109
REMARK   44  A    between atoms: _109  and  _110
REMARK   45  A    between atoms: _109  and  _112
REMARK   46  A    between atoms: _112  and  _113
REMARK   47  A    between atoms: _116  and  _118
REMARK   48  A    between atoms: _118  and  _119
REMARK   49  A    between atoms: _118  and  _121
REMARK   50  A    between atoms: _121  and  _122
REMARK   51  A    between atoms: _125  and  _127
REMARK   52  A    between atoms: _127  and  _128
REMARK   53  A    between atoms: _131  and  _133
REMARK   54  A    between atoms: _133  and  _134
REMARK   55  A    between atoms: _137  and  _139
REMARK   56  A    between atoms: _139  and  _140
REMARK   57  A    between atoms: _139  and  _142
REMARK   58  A    between atoms: _145  and  _147
REMARK   59  A    between atoms: _147  and  _148
REMARK   60  A    between atoms: _147  and  _150
REMARK   61  A    between atoms: _150  and  _151
REMARK   62  A    between atoms: _161  and  _163
REMARK   63  A    between atoms: _163  and  _164
REMARK   64  A    between atoms: _166  and  _168
REMARK   65  A    between atoms: _168  and  _169
REMARK   66  A    between atoms: _172  and  _174
REMARK   67  A    between atoms: _174  and  _175
REMARK   68  A    between atoms: _174  and  _177
REMARK   69  A    between atoms: _177  and  _178
REMARK   70  A    between atoms: _178  and  _179
REMARK   71  A    between atoms: _182  and  _184
REMARK   72  A    between atoms: _184  and  _185
REMARK   73  A    between atoms: _184  and  _187
REMARK   74  A    between atoms: _187  and  _188
REMARK   75  A    between atoms: _191  and  _193
REMARK   76  A    between atoms: _193  and  _194
REMARK   77  A    between atoms: _197  and  _199
REMARK   78  A    between atoms: _199  and  _200
REMARK   79  A    between atoms: _199  and  _202
REMARK   80  A    between atoms: _202  and  _203
REMARK   81  A    between atoms: _207  and  _208
REMARK   82  A    between atoms: _213  and  _215
REMARK   83  A    between atoms: _215  and  _216
REMARK   84  A    between atoms: _215  and  _218
REMARK   85  A    between atoms: _218  and  _219
REMARK   86  A    between atoms: _224  and  _226
REMARK   87  A    between atoms: _226  and  _227
REMARK   88  A    between atoms: _226  and  _229
REMARK   89  A    between atoms: _232  and  _234
REMARK   90  A    between atoms: _234  and  _235
REMARK   91  A    between atoms: _234  and  _237
REMARK   92  A    between atoms: _237  and  _238
REMARK   93  A    between atoms: _241  and  _243
REMARK   94  A    between atoms: _243  and  _244
REMARK   95  A    between atoms: _243  and  _246
REMARK   96  A    between atoms: _246  and  _247
REMARK   97  A    between atoms: _250  and  _252
REMARK   98  A    between atoms: _252  and  _253
REMARK   99  A    between atoms: _252  and  _255
REMARK  100  A    between atoms: _255  and  _256
REMARK  101  A    between atoms: _256  and  _257
REMARK  102  A    between atoms: _257  and  _258
REMARK  103  A    between atoms: _258  and  _259
REMARK  104  A    between atoms: _263  and  _265
REMARK  105  A    between atoms: _265  and  _266
REMARK  106  A    between atoms: _265  and  _268
REMARK  107  A    between atoms: _268  and  _269
REMARK  108  A    between atoms: _269  and  _270
REMARK  109  A    between atoms: _270  and  _271
REMARK  110  A    between atoms: _271  and  _272
REMARK  111  A    between atoms: _276  and  _278
REMARK  112  A    between atoms: _278  and  _279
REMARK  113  A    between atoms: _278  and  _281
REMARK  114  A    between atoms: _281  and  _282
REMARK  115  A    between atoms: _286  and  _287
REMARK  116  A    between atoms: _292  and  _294
REMARK  117  A    between atoms: _294  and  _295
REMARK  118  A    between atoms: _297  and  _299
REMARK  119  A    between atoms: _299  and  _300
REMARK  120  A    between atoms: _299  and  _302
REMARK  121  A    between atoms: _302  and  _303
REMARK  122  A    between atoms: _309  and  _310
REMARK  123  A    between atoms: _315  and  _317
REMARK  124  A    between atoms: _317  and  _318
REMARK  125  A    between atoms: _317  and  _320
REMARK  126  A    between atoms: _320  and  _321
REMARK  127  A    between atoms: _324  and  _326
REMARK  128  A    between atoms: _326  and  _327
REMARK  129  A    between atoms: _326  and  _329
REMARK  130  A    between atoms: _329  and  _330
REMARK  131  A    between atoms: _330  and  _331
REMARK  132  A    between atoms: _331  and  _332
REMARK  133  A    between atoms: _341  and  _343
REMARK  134  A    between atoms: _343  and  _344
REMARK  135  A    between atoms: _343  and  _346
REMARK  136  A    between atoms: _346  and  _347
REMARK  137  A    between atoms: _349  and  _351
REMARK  138  A    between atoms: _351  and  _352
REMARK  139  A    between atoms: _351  and  _354
REMARK  140  A    between atoms: _354  and  _355
REMARK  141  A    between atoms: _360  and  _361
REMARK  142  A    between atoms: _363  and  _365
REMARK  143  A    between atoms: _365  and  _366
REMARK  144  A    between atoms: _365  and  _368
REMARK  145  A    between atoms: _368  and  _369
REMARK  146  A    between atoms: _374  and  _376
REMARK  147  A    between atoms: _376  and  _377
REMARK  148  A    between atoms: _376  and  _379
REMARK  149  A    between atoms: _379  and  _380
REMARK  150  A    between atoms: _380  and  _381
REMARK  151  A    between atoms: _386  and  _388
REMARK  152  A    between atoms: _388  and  _389
REMARK  153  A    between atoms: _388  and  _391
REMARK  154  A    between atoms: _391  and  _392
REMARK  155  A    between atoms: _395  and  _397
REMARK  156  A    between atoms: _397  and  _398
REMARK  157  A    between atoms: _401  and  _403
REMARK  158  A    between atoms: _403  and  _404
REMARK  159  A    between atoms: _407  and  _409
REMARK  160  A    between atoms: _409  and  _410
REMARK  161  A    between atoms: _409  and  _412
REMARK  162  A    between atoms: _412  and  _413
REMARK  163  A    between atoms: _413  and  _414
REMARK  164  A    between atoms: _416  and  _418
REMARK  165  A    between atoms: _418  and  _419
REMARK  166  A    between atoms: _418  and  _421
REMARK  167  A    between atoms: _421  and  _422
REMARK  168  A    between atoms: _422  and  _423
REMARK  169  A    between atoms: _423  and  _424
REMARK  170  A    between atoms: _433  and  _435
REMARK  171  A    between atoms: _435  and  _436
REMARK  172  A    between atoms: _435  and  _438
REMARK  173  A    between atoms: _438  and  _439
REMARK  174  A    between atoms: _439  and  _440
REMARK  175  A    between atoms: _445  and  _447
REMARK  176  A    between atoms: _447  and  _448
REMARK  177  A    between atoms: _450  and  _452
REMARK  178  A    between atoms: _452  and  _453
REMARK  179  A    between atoms: _452  and  _455
REMARK  180  A    between atoms: _455  and  _456
REMARK  181  A    between atoms: _459  and  _461
REMARK  182  A    between atoms: _461  and  _462
REMARK  183  A    between atoms: _461  and  _464
REMARK  184  A    between atoms: _464  and  _465
REMARK  185  A    between atoms: _465  and  _466
REMARK  186  A    between atoms: _469  and  _471
REMARK  187  A    between atoms: _471  and  _472
REMARK  188  A    between atoms: _471  and  _474
REMARK  189  A    between atoms: _474  and  _475
REMARK  190  A    between atoms: _475  and  _476
REMARK  191  A    between atoms: _479  and  _481
REMARK  192  A    between atoms: _481  and  _482
REMARK  193  A    between atoms: _481  and  _484
REMARK  194  A    between atoms: _484  and  _485
REMARK  195  A    between atoms: _488  and  _490
REMARK  196  A    between atoms: _490  and  _491
REMARK  197  A    between atoms: _490  and  _493
REMARK  198  A    between atoms: _493  and  _494
REMARK  199  A    between atoms: _494  and  _495
REMARK  200  A    between atoms: _495  and  _496
REMARK  201  A    between atoms: _505  and  _507
REMARK  202  A    between atoms: _507  and  _508
REMARK  203  A    between atoms: _507  and  _510
REMARK  204  A    between atoms: _510  and  _511
REMARK  205  A    between atoms: _514  and  _516
REMARK  206  A    between atoms: _516  and  _517
REMARK  207  A    between atoms: _520  and  _522
REMARK  208  A    between atoms: _522  and  _523
REMARK  209  A    between atoms: _522  and  _525
REMARK  210  A    between atoms: _528  and  _530
REMARK  211  A    between atoms: _530  and  _531
REMARK  212  A    between atoms: _530  and  _533
REMARK  213  A    between atoms: _533  and  _534
REMARK  214  A    between atoms: _537  and  _539
REMARK  215  A    between atoms: _539  and  _540
REMARK  216  A    between atoms: _539  and  _542
REMARK  217  A    between atoms: _542  and  _543
REMARK  218  A    between atoms: _548  and  _549
REMARK                            x       y       z     vdW  Elec       q    Type
REMARK                         _______ _______ _______ _____ _____    ______ ____
ROOT
ATOM      1  O   HOH     1      -3.265   7.280 -18.864  0.00  0.00    +0.000 OA
ENDROOT
TORSDOF 0
REMARK  Name = ../refined-set-2016/2hw2/2hw2_pocket.pdb
REMARK  218 active torsions:
REMARK  status: ('A' for Active; 'I' for Inactive)
REMARK    1  A    between atoms: _2  and  _3
REMARK    2  A    between atoms: _8  and  _10
REMARK    3  A    between atoms: _10  and  _11
REMARK    4  A    between atoms: _10  and  _13
REMARK    5  A    between atoms: _13  and  _14
REMARK    6  A    between atoms: _20  and  _22
REMARK    7  A    between atoms: _22  and  _23
REMARK    8  A    between atoms: _25  and  _27
REMARK    9  A    between atoms: _27  and  _28
REMARK   10  A    between atoms: _27  and  _30
REMARK   11  A    between atoms: _30  and  _31
REMARK   12  A    between atoms: _33  and  _35
REMARK   13  A    between atoms: _35  and  _36
REMARK   14  A    between atoms: _35  and  _38
REMARK   15  A    between atoms: _38  and  _39
REMARK   16  A    between atoms: _44  and  _46
REMARK   17  A    between atoms: _46  and  _47
REMARK   18  A    between atoms: _46  and  _49
REMARK   19  A    between atoms: _49  and  _50
REMARK   20  A    between atoms: _56  and  _58
REMARK   21  A    between atoms: _58  and  _59
REMARK   22  A    between atoms: _58  and  _61
REMARK   23  A    between atoms: _61  and  _62
REMARK   24  A    between atoms: _62  and  _63
REMARK   25  A    between atoms: _66  and  _68
REMARK   26  A    between atoms: _68  and  _69
REMARK   27  A    between atoms: _68  and  _71
REMARK   28  A    between atoms: _71  and  _72
REMARK   29  A    between atoms: _72  and  _73
REMARK   30  A    between atoms: _75  and  _77
REMARK   31  A    between atoms: _77  and  _78
REMARK   32  A    between atoms: _77  and  _80
REMARK   33  A    between atoms: _80  and  _81
REMARK   34  A    between atoms: _86  and  _87
REMARK   35  A    between atoms: _89  and  _91
REMARK   36  A    between atoms: _91  and  _92
REMARK   37  A    between atoms: _91  and  _94
REMARK   38  A    between atoms: _94  and  _95
REMARK   39  A    between atoms: _98  and  _100
REMARK   40  A    between atoms: _100  and  _101
REMARK   41  A    between atoms: _100  and  _103
REMARK   42  A    between atoms: _103  and  _104
REMARK   43  A    between atoms: _107  and  _109
REMARK   44  A    between atoms: _109  and  _110
REMARK   45  A    between atoms: _109  and  _112
REMARK   46  A    between atoms: _112  and  _113
REMARK   47  A    between atoms: _116  and  _118
REMARK   48  A    between atoms: _118  and  _119
REMARK   49  A    between atoms: _118  and  _121
REMARK   50  A    between atoms: _121  and  _122
REMARK   51  A    between atoms: _125  and  _127
REMARK   52  A    between atoms: _127  and  _128
REMARK   53  A    between atoms: _131  and  _133
REMARK   54  A    between atoms: _133  and  _134
REMARK   55  A    between atoms: _137  and  _139
REMARK   56  A    between atoms: _139  and  _140
REMARK   57  A    between atoms: _139  and  _142
REMARK   58  A    between atoms: _145  and  _147
REMARK   59  A    between atoms: _147  and  _148
REMARK   60  A    between atoms: _147  and  _150
REMARK   61  A    between atoms: _150  and  _151
REMARK   62  A    between atoms: _161  and  _163
REMARK   63  A    between atoms: _163  and  _164
REMARK   64  A    between atoms: _166  and  _168
REMARK   65  A    between atoms: _168  and  _169
REMARK   66  A    between atoms: _172  and  _174
REMARK   67  A    between atoms: _174  and  _175
REMARK   68  A    between atoms: _174  and  _177
REMARK   69  A    between atoms: _177  and  _178
REMARK   70  A    between atoms: _178  and  _179
REMARK   71  A    between atoms: _182  and  _184
REMARK   72  A    between atoms: _184  and  _185
REMARK   73  A    between atoms: _184  and  _187
REMARK   74  A    between atoms: _187  and  _188
REMARK   75  A    between atoms: _191  and  _193
REMARK   76  A    between atoms: _193  and  _194
REMARK   77  A    between atoms: _197  and  _199
REMARK   78  A    between atoms: _199  and  _200
REMARK   79  A    between atoms: _199  and  _202
REMARK   80  A    between atoms: _202  and  _203
REMARK   81  A    between atoms: _207  and  _208
REMARK   82  A    between atoms: _213  and  _215
REMARK   83  A    between atoms: _215  and  _216
REMARK   84  A    between atoms: _215  and  _218
REMARK   85  A    between atoms: _218  and  _219
REMARK   86  A    between atoms: _224  and  _226
REMARK   87  A    between atoms: _226  and  _227
REMARK   88  A    between atoms: _226  and  _229
REMARK   89  A    between atoms: _232  and  _234
REMARK   90  A    between atoms: _234  and  _235
REMARK   91  A    between atoms: _234  and  _237
REMARK   92  A    between atoms: _237  and  _238
REMARK   93  A    between atoms: _241  and  _243
REMARK   94  A    between atoms: _243  and  _244
REMARK   95  A    between atoms: _243  and  _246
REMARK   96  A    between atoms: _246  and  _247
REMARK   97  A    between atoms: _250  and  _252
REMARK   98  A    between atoms: _252  and  _253
REMARK   99  A    between atoms: _252  and  _255
REMARK  100  A    between atoms: _255  and  _256
REMARK  101  A    between atoms: _256  and  _257
REMARK  102  A    between atoms: _257  and  _258
REMARK  103  A    between atoms: _258  and  _259
REMARK  104  A    between atoms: _263  and  _265
REMARK  105  A    between atoms: _265  and  _266
REMARK  106  A    between atoms: _265  and  _268
REMARK  107  A    between atoms: _268  and  _269
REMARK  108  A    between atoms: _269  and  _270
REMARK  109  A    between atoms: _270  and  _271
REMARK  110  A    between atoms: _271  and  _272
REMARK  111  A    between atoms: _276  and  _278
REMARK  112  A    between atoms: _278  and  _279
REMARK  113  A    between atoms: _278  and  _281
REMARK  114  A    between atoms: _281  and  _282
REMARK  115  A    between atoms: _286  and  _287
REMARK  116  A    between atoms: _292  and  _294
REMARK  117  A    between atoms: _294  and  _295
REMARK  118  A    between atoms: _297  and  _299
REMARK  119  A    between atoms: _299  and  _300
REMARK  120  A    between atoms: _299  and  _302
REMARK  121  A    between atoms: _302  and  _303
REMARK  122  A    between atoms: _309  and  _310
REMARK  123  A    between atoms: _315  and  _317
REMARK  124  A    between atoms: _317  and  _318
REMARK  125  A    between atoms: _317  and  _320
REMARK  126  A    between atoms: _320  and  _321
REMARK  127  A    between atoms: _324  and  _326
REMARK  128  A    between atoms: _326  and  _327
REMARK  129  A    between atoms: _326  and  _329
REMARK  130  A    between atoms: _329  and  _330
REMARK  131  A    between atoms: _330  and  _331
REMARK  132  A    between atoms: _331  and  _332
REMARK  133  A    between atoms: _341  and  _343
REMARK  134  A    between atoms: _343  and  _344
REMARK  135  A    between atoms: _343  and  _346
REMARK  136  A    between atoms: _346  and  _347
REMARK  137  A    between atoms: _349  and  _351
REMARK  138  A    between atoms: _351  and  _352
REMARK  139  A    between atoms: _351  and  _354
REMARK  140  A    between atoms: _354  and  _355
REMARK  141  A    between atoms: _360  and  _361
REMARK  142  A    between atoms: _363  and  _365
REMARK  143  A    between atoms: _365  and  _366
REMARK  144  A    between atoms: _365  and  _368
REMARK  145  A    between atoms: _368  and  _369
REMARK  146  A    between atoms: _374  and  _376
REMARK  147  A    between atoms: _376  and  _377
REMARK  148  A    between atoms: _376  and  _379
REMARK  149  A    between atoms: _379  and  _380
REMARK  150  A    between atoms: _380  and  _381
REMARK  151  A    between atoms: _386  and  _388
REMARK  152  A    between atoms: _388  and  _389
REMARK  153  A    between atoms: _388  and  _391
REMARK  154  A    between atoms: _391  and  _392
REMARK  155  A    between atoms: _395  and  _397
REMARK  156  A    between atoms: _397  and  _398
REMARK  157  A    between atoms: _401  and  _403
REMARK  158  A    between atoms: _403  and  _404
REMARK  159  A    between atoms: _407  and  _409
REMARK  160  A    between atoms: _409  and  _410
REMARK  161  A    between atoms: _409  and  _412
REMARK  162  A    between atoms: _412  and  _413
REMARK  163  A    between atoms: _413  and  _414
REMARK  164  A    between atoms: _416  and  _418
REMARK  165  A    between atoms: _418  and  _419
REMARK  166  A    between atoms: _418  and  _421
REMARK  167  A    between atoms: _421  and  _422
REMARK  168  A    between atoms: _422  and  _423
REMARK  169  A    between atoms: _423  and  _424
REMARK  170  A    between atoms: _433  and  _435
REMARK  171  A    between atoms: _435  and  _436
REMARK  172  A    between atoms: _435  and  _438
REMARK  173  A    between atoms: _438  and  _439
REMARK  174  A    between atoms: _439  and  _440
REMARK  175  A    between atoms: _445  and  _447
REMARK  176  A    between atoms: _447  and  _448
REMARK  177  A    between atoms: _450  and  _452
REMARK  178  A    between atoms: _452  and  _453
REMARK  179  A    between atoms: _452  and  _455
REMARK  180  A    between atoms: _455  and  _456
REMARK  181  A    between atoms: _459  and  _461
REMARK  182  A    between atoms: _461  and  _462
REMARK  183  A    between atoms: _461  and  _464
REMARK  184  A    between atoms: _464  and  _465
REMARK  185  A    between atoms: _465  and  _466
REMARK  186  A    between atoms: _469  and  _471
REMARK  187  A    between atoms: _471  and  _472
REMARK  188  A    between atoms: _471  and  _474
REMARK  189  A    between atoms: _474  and  _475
REMARK  190  A    between atoms: _475  and  _476
REMARK  191  A    between atoms: _479  and  _481
REMARK  192  A    between atoms: _481  and  _482
REMARK  193  A    between atoms: _481  and  _484
REMARK  194  A    between atoms: _484  and  _485
REMARK  195  A    between atoms: _488  and  _490
REMARK  196  A    between atoms: _490  and  _491
REMARK  197  A    between atoms: _490  and  _493
REMARK  198  A    between atoms: _493  and  _494
REMARK  199  A    between atoms: _494  and  _495
REMARK  200  A    between atoms: _495  and  _496
REMARK  201  A    between atoms: _505  and  _507
REMARK  202  A    between atoms: _507  and  _508
REMARK  203  A    between atoms: _507  and  _510
REMARK  204  A    between atoms: _510  and  _511
REMARK  205  A    between atoms: _514  and  _516
REMARK  206  A    between atoms: _516  and  _517
REMARK  207  A    between atoms: _520  and  _522
REMARK  208  A    between atoms: _522  and  _523
REMARK  209  A    between atoms: _522  and  _525
REMARK  210  A    between atoms: _528  and  _530
REMARK  211  A    between atoms: _530  and  _531
REMARK  212  A    between atoms: _530  and  _533
REMARK  213  A    between atoms: _533  and  _534
REMARK  214  A    between atoms: _537  and  _539
REMARK  215  A    between atoms: _539  and  _540
REMARK  216  A    between atoms: _539  and  _542
REMARK  217  A    between atoms: _542  and  _543
REMARK  218  A    between atoms: _548  and  _549
REMARK                            x       y       z     vdW  Elec       q    Type
REMARK                         _______ _______ _______ _____ _____    ______ ____
ROOT
ATOM      1  O   HOH     1      -5.334   7.382 -20.997  0.00  0.00    +0.000 OA
ENDROOT
TORSDOF 0
