REMARK  Name = ../refined-set-2016/3dbu/3dbu_pocket.pdb
REMARK  160 active torsions:
REMARK  status: ('A' for Active; 'I' for Inactive)
REMARK    1  A    between atoms: _1  and  _3
REMARK    2  A    between atoms: _3  and  _4
REMARK    3  A    between atoms: _3  and  _6
REMARK    4  A    between atoms: _6  and  _7
REMARK    5  A    between atoms: _17  and  _19
REMARK    6  A    between atoms: _19  and  _20
REMARK    7  A    between atoms: _19  and  _22
REMARK    8  A    between atoms: _22  and  _23
REMARK    9  A    between atoms: _28  and  _29
REMARK   10  A    between atoms: _31  and  _33
REMARK   11  A    between atoms: _33  and  _34
REMARK   12  A    between atoms: _33  and  _36
REMARK   13  A    between atoms: _36  and  _37
REMARK   14  A    between atoms: _40  and  _41
REMARK   15  A    between atoms: _46  and  _48
REMARK   16  A    between atoms: _48  and  _49
REMARK   17  A    between atoms: _48  and  _51
REMARK   18  A    between atoms: _51  and  _52
REMARK   19  A    between atoms: _57  and  _59
REMARK   20  A    between atoms: _59  and  _60
REMARK   21  A    between atoms: _59  and  _62
REMARK   22  A    between atoms: _62  and  _63
REMARK   23  A    between atoms: _68  and  _70
REMARK   24  A    between atoms: _70  and  _71
REMARK   25  A    between atoms: _70  and  _73
REMARK   26  A    between atoms: _73  and  _74
REMARK   27  A    between atoms: _76  and  _78
REMARK   28  A    between atoms: _78  and  _79
REMARK   29  A    between atoms: _78  and  _81
REMARK   30  A    between atoms: _81  and  _82
REMARK   31  A    between atoms: _82  and  _83
REMARK   32  A    between atoms: _88  and  _90
REMARK   33  A    between atoms: _90  and  _91
REMARK   34  A    between atoms: _90  and  _93
REMARK   35  A    between atoms: _93  and  _94
REMARK   36  A    between atoms: _94  and  _95
REMARK   37  A    between atoms: _98  and  _100
REMARK   38  A    between atoms: _100  and  _101
REMARK   39  A    between atoms: _100  and  _103
REMARK   40  A    between atoms: _103  and  _104
REMARK   41  A    between atoms: _107  and  _109
REMARK   42  A    between atoms: _109  and  _110
REMARK   43  A    between atoms: _109  and  _112
REMARK   44  A    between atoms: _112  and  _113
REMARK   45  A    between atoms: _113  and  _114
REMARK   46  A    between atoms: _119  and  _121
REMARK   47  A    between atoms: _121  and  _122
REMARK   48  A    between atoms: _121  and  _124
REMARK   49  A    between atoms: _124  and  _125
REMARK   50  A    between atoms: _131  and  _133
REMARK   51  A    between atoms: _144  and  _147
REMARK   52  A    between atoms: _147  and  _148
REMARK   53  A    between atoms: _156  and  _157
REMARK   54  A    between atoms: _165  and  _167
REMARK   55  A    between atoms: _167  and  _168
REMARK   56  A    between atoms: _167  and  _170
REMARK   57  A    between atoms: _170  and  _171
REMARK   58  A    between atoms: _171  and  _172
REMARK   59  A    between atoms: _175  and  _177
REMARK   60  A    between atoms: _177  and  _178
REMARK   61  A    between atoms: _177  and  _180
REMARK   62  A    between atoms: _180  and  _181
REMARK   63  A    between atoms: _186  and  _188
REMARK   64  A    between atoms: _188  and  _189
REMARK   65  A    between atoms: _188  and  _191
REMARK   66  A    between atoms: _191  and  _192
REMARK   67  A    between atoms: _192  and  _193
REMARK   68  A    between atoms: _196  and  _198
REMARK   69  A    between atoms: _198  and  _199
REMARK   70  A    between atoms: _198  and  _201
REMARK   71  A    between atoms: _201  and  _202
REMARK   72  A    between atoms: _205  and  _207
REMARK   73  A    between atoms: _207  and  _208
REMARK   74  A    between atoms: _207  and  _210
REMARK   75  A    between atoms: _210  and  _211
REMARK   76  A    between atoms: _212  and  ZN_439
REMARK   77  A    between atoms: _216  and  _218
REMARK   78  A    between atoms: _218  and  _219
REMARK   79  A    between atoms: _218  and  _221
REMARK   80  A    between atoms: _221  and  _222
REMARK   81  A    between atoms: _225  and  _227
REMARK   82  A    between atoms: _227  and  _228
REMARK   83  A    between atoms: _227  and  _230
REMARK   84  A    between atoms: _233  and  _235
REMARK   85  A    between atoms: _235  and  _236
REMARK   86  A    between atoms: _235  and  _238
REMARK   87  A    between atoms: _238  and  _239
REMARK   88  A    between atoms: _244  and  _246
REMARK   89  A    between atoms: _246  and  _247
REMARK   90  A    between atoms: _246  and  _249
REMARK   91  A    between atoms: _249  and  _250
REMARK   92  A    between atoms: _256  and  _258
REMARK   93  A    between atoms: _258  and  _259
REMARK   94  A    between atoms: _261  and  _263
REMARK   95  A    between atoms: _263  and  _264
REMARK   96  A    between atoms: _263  and  _266
REMARK   97  A    between atoms: _269  and  _271
REMARK   98  A    between atoms: _271  and  _272
REMARK   99  A    between atoms: _271  and  _274
REMARK  100  A    between atoms: _274  and  _275
REMARK  101  A    between atoms: _275  and  _276
REMARK  102  A    between atoms: _281  and  _283
REMARK  103  A    between atoms: _283  and  _284
REMARK  104  A    between atoms: _283  and  _286
REMARK  105  A    between atoms: _286  and  _287
REMARK  106  A    between atoms: _290  and  _292
REMARK  107  A    between atoms: _292  and  _293
REMARK  108  A    between atoms: _296  and  _298
REMARK  109  A    between atoms: _298  and  _299
REMARK  110  A    between atoms: _298  and  _301
REMARK  111  A    between atoms: _304  and  _306
REMARK  112  A    between atoms: _306  and  _307
REMARK  113  A    between atoms: _306  and  _309
REMARK  114  A    between atoms: _309  and  _310
REMARK  115  A    between atoms: _313  and  _315
REMARK  116  A    between atoms: _315  and  _316
REMARK  117  A    between atoms: _315  and  _318
REMARK  118  A    between atoms: _318  and  _319
REMARK  119  A    between atoms: _321  and  _323
REMARK  120  A    between atoms: _323  and  _324
REMARK  121  A    between atoms: _323  and  _326
REMARK  122  A    between atoms: _326  and  _327
REMARK  123  A    between atoms: _330  and  _332
REMARK  124  A    between atoms: _332  and  _333
REMARK  125  A    between atoms: _332  and  _335
REMARK  126  A    between atoms: _335  and  _336
REMARK  127  A    between atoms: _339  and  _341
REMARK  128  A    between atoms: _341  and  _342
REMARK  129  A    between atoms: _341  and  _344
REMARK  130  A    between atoms: _344  and  _345
REMARK  131  A    between atoms: _349  and  _350
REMARK  132  A    between atoms: _356  and  _357
REMARK  133  A    between atoms: _362  and  _364
REMARK  134  A    between atoms: _364  and  _365
REMARK  135  A    between atoms: _364  and  _367
REMARK  136  A    between atoms: _367  and  _368
REMARK  137  A    between atoms: _371  and  _373
REMARK  138  A    between atoms: _373  and  _374
REMARK  139  A    between atoms: _373  and  _376
REMARK  140  A    between atoms: _376  and  _377
REMARK  141  A    between atoms: _380  and  _382
REMARK  142  A    between atoms: _382  and  _383
REMARK  143  A    between atoms: _382  and  _385
REMARK  144  A    between atoms: _387  and  _389
REMARK  145  A    between atoms: _389  and  _390
REMARK  146  A    between atoms: _389  and  _392
REMARK  147  A    between atoms: _395  and  _397
REMARK  148  A    between atoms: _397  and  _398
REMARK  149  A    between atoms: _397  and  _400
REMARK  150  A    between atoms: _400  and  _401
REMARK  151  A    between atoms: _411  and  _413
REMARK  152  A    between atoms: _413  and  _414
REMARK  153  A    between atoms: _413  and  _416
REMARK  154  A    between atoms: _416  and  _417
REMARK  155  A    between atoms: _422  and  _424
REMARK  156  A    between atoms: _424  and  _425
REMARK  157  A    between atoms: _424  and  _427
REMARK  158  A    between atoms: _427  and  _428
REMARK  159  A    between atoms: _428  and  _429
REMARK  160  A    between atoms: _429  and  _430
REMARK                            x       y       z     vdW  Elec       q    Type
REMARK                         _______ _______ _______ _____ _____    ______ ____
ROOT
ATOM      1  CG  TRP A   1       5.949   0.055  12.145  0.00  0.00    -0.002 A 
ATOM      2  CD2 TRP A   1       4.575  -0.372  12.039  0.00  0.00    +0.013 A 
ATOM      3  CE3 TRP A   1       3.924  -1.594  12.233  0.00  0.00    +0.001 A 
ATOM      4  CZ3 TRP A   1       2.549  -1.658  12.032  0.00  0.00    +0.000 A 
ATOM      5  CH2 TRP A   1       1.810  -0.524  11.643  0.00  0.00    +0.001 A 
ATOM      6  CZ2 TRP A   1       2.433   0.678  11.452  0.00  0.00    +0.017 A 
ATOM      7  CE2 TRP A   1       3.811   0.751  11.649  0.00  0.00    +0.056 A 
ATOM      8  NE1 TRP A   1       4.684   1.814  11.531  0.00  0.00    -0.352 N 
ATOM      9  HE1 TRP A   1       4.424   2.784  11.260  0.00  0.00    +0.166 HD
ATOM     10  CD1 TRP A   1       5.953   1.381  11.831  0.00  0.00    +0.068 A 
ENDROOT
BRANCH   1  11
ATOM     11  CB  TRP A   1       7.133  -0.777  12.532  0.00  0.00    +0.053 C 
BRANCH  11  12
ATOM     12  CA  TRP A   1       7.826  -1.430  11.333  0.00  0.00    +0.137 C 
BRANCH  12  13
ATOM     13  N   TRP A   1       8.451  -0.409  10.490  0.00  0.00    -0.239 NA
ATOM     14  H   TRP A   1       8.174   0.589  10.584  0.00  0.00    +0.142 HD
ENDBRANCH  12  13
BRANCH  12  15
ATOM     15  C   TRP A   1       6.827  -2.247  10.538  0.00  0.00    +0.224 C 
ATOM     16  O   TRP A   1       6.321  -1.812   9.492  0.00  0.00    -0.287 OA
ENDBRANCH  12  15
ENDBRANCH  11  12
ENDBRANCH   1  11
TORSDOF 4
REMARK  Name = ../refined-set-2016/3dbu/3dbu_pocket.pdb
REMARK  160 active torsions:
REMARK  status: ('A' for Active; 'I' for Inactive)
REMARK    1  A    between atoms: _1  and  _3
REMARK    2  A    between atoms: _3  and  _4
REMARK    3  A    between atoms: _3  and  _6
REMARK    4  A    between atoms: _6  and  _7
REMARK    5  A    between atoms: _17  and  _19
REMARK    6  A    between atoms: _19  and  _20
REMARK    7  A    between atoms: _19  and  _22
REMARK    8  A    between atoms: _22  and  _23
REMARK    9  A    between atoms: _28  and  _29
REMARK   10  A    between atoms: _31  and  _33
REMARK   11  A    between atoms: _33  and  _34
REMARK   12  A    between atoms: _33  and  _36
REMARK   13  A    between atoms: _36  and  _37
REMARK   14  A    between atoms: _40  and  _41
REMARK   15  A    between atoms: _46  and  _48
REMARK   16  A    between atoms: _48  and  _49
REMARK   17  A    between atoms: _48  and  _51
REMARK   18  A    between atoms: _51  and  _52
REMARK   19  A    between atoms: _57  and  _59
REMARK   20  A    between atoms: _59  and  _60
REMARK   21  A    between atoms: _59  and  _62
REMARK   22  A    between atoms: _62  and  _63
REMARK   23  A    between atoms: _68  and  _70
REMARK   24  A    between atoms: _70  and  _71
REMARK   25  A    between atoms: _70  and  _73
REMARK   26  A    between atoms: _73  and  _74
REMARK   27  A    between atoms: _76  and  _78
REMARK   28  A    between atoms: _78  and  _79
REMARK   29  A    between atoms: _78  and  _81
REMARK   30  A    between atoms: _81  and  _82
REMARK   31  A    between atoms: _82  and  _83
REMARK   32  A    between atoms: _88  and  _90
REMARK   33  A    between atoms: _90  and  _91
REMARK   34  A    between atoms: _90  and  _93
REMARK   35  A    between atoms: _93  and  _94
REMARK   36  A    between atoms: _94  and  _95
REMARK   37  A    between atoms: _98  and  _100
REMARK   38  A    between atoms: _100  and  _101
REMARK   39  A    between atoms: _100  and  _103
REMARK   40  A    between atoms: _103  and  _104
REMARK   41  A    between atoms: _107  and  _109
REMARK   42  A    between atoms: _109  and  _110
REMARK   43  A    between atoms: _109  and  _112
REMARK   44  A    between atoms: _112  and  _113
REMARK   45  A    between atoms: _113  and  _114
REMARK   46  A    between atoms: _119  and  _121
REMARK   47  A    between atoms: _121  and  _122
REMARK   48  A    between atoms: _121  and  _124
REMARK   49  A    between atoms: _124  and  _125
REMARK   50  A    between atoms: _131  and  _133
REMARK   51  A    between atoms: _144  and  _147
REMARK   52  A    between atoms: _147  and  _148
REMARK   53  A    between atoms: _156  and  _157
REMARK   54  A    between atoms: _165  and  _167
REMARK   55  A    between atoms: _167  and  _168
REMARK   56  A    between atoms: _167  and  _170
REMARK   57  A    between atoms: _170  and  _171
REMARK   58  A    between atoms: _171  and  _172
REMARK   59  A    between atoms: _175  and  _177
REMARK   60  A    between atoms: _177  and  _178
REMARK   61  A    between atoms: _177  and  _180
REMARK   62  A    between atoms: _180  and  _181
REMARK   63  A    between atoms: _186  and  _188
REMARK   64  A    between atoms: _188  and  _189
REMARK   65  A    between atoms: _188  and  _191
REMARK   66  A    between atoms: _191  and  _192
REMARK   67  A    between atoms: _192  and  _193
REMARK   68  A    between atoms: _196  and  _198
REMARK   69  A    between atoms: _198  and  _199
REMARK   70  A    between atoms: _198  and  _201
REMARK   71  A    between atoms: _201  and  _202
REMARK   72  A    between atoms: _205  and  _207
REMARK   73  A    between atoms: _207  and  _208
REMARK   74  A    between atoms: _207  and  _210
REMARK   75  A    between atoms: _210  and  _211
REMARK   76  A    between atoms: _212  and  ZN_439
REMARK   77  A    between atoms: _216  and  _218
REMARK   78  A    between atoms: _218  and  _219
REMARK   79  A    between atoms: _218  and  _221
REMARK   80  A    between atoms: _221  and  _222
REMARK   81  A    between atoms: _225  and  _227
REMARK   82  A    between atoms: _227  and  _228
REMARK   83  A    between atoms: _227  and  _230
REMARK   84  A    between atoms: _233  and  _235
REMARK   85  A    between atoms: _235  and  _236
REMARK   86  A    between atoms: _235  and  _238
REMARK   87  A    between atoms: _238  and  _239
REMARK   88  A    between atoms: _244  and  _246
REMARK   89  A    between atoms: _246  and  _247
REMARK   90  A    between atoms: _246  and  _249
REMARK   91  A    between atoms: _249  and  _250
REMARK   92  A    between atoms: _256  and  _258
REMARK   93  A    between atoms: _258  and  _259
REMARK   94  A    between atoms: _261  and  _263
REMARK   95  A    between atoms: _263  and  _264
REMARK   96  A    between atoms: _263  and  _266
REMARK   97  A    between atoms: _269  and  _271
REMARK   98  A    between atoms: _271  and  _272
REMARK   99  A    between atoms: _271  and  _274
REMARK  100  A    between atoms: _274  and  _275
REMARK  101  A    between atoms: _275  and  _276
REMARK  102  A    between atoms: _281  and  _283
REMARK  103  A    between atoms: _283  and  _284
REMARK  104  A    between atoms: _283  and  _286
REMARK  105  A    between atoms: _286  and  _287
REMARK  106  A    between atoms: _290  and  _292
REMARK  107  A    between atoms: _292  and  _293
REMARK  108  A    between atoms: _296  and  _298
REMARK  109  A    between atoms: _298  and  _299
REMARK  110  A    between atoms: _298  and  _301
REMARK  111  A    between atoms: _304  and  _306
REMARK  112  A    between atoms: _306  and  _307
REMARK  113  A    between atoms: _306  and  _309
REMARK  114  A    between atoms: _309  and  _310
REMARK  115  A    between atoms: _313  and  _315
REMARK  116  A    between atoms: _315  and  _316
REMARK  117  A    between atoms: _315  and  _318
REMARK  118  A    between atoms: _318  and  _319
REMARK  119  A    between atoms: _321  and  _323
REMARK  120  A    between atoms: _323  and  _324
REMARK  121  A    between atoms: _323  and  _326
REMARK  122  A    between atoms: _326  and  _327
REMARK  123  A    between atoms: _330  and  _332
REMARK  124  A    between atoms: _332  and  _333
REMARK  125  A    between atoms: _332  and  _335
REMARK  126  A    between atoms: _335  and  _336
REMARK  127  A    between atoms: _339  and  _341
REMARK  128  A    between atoms: _341  and  _342
REMARK  129  A    between atoms: _341  and  _344
REMARK  130  A    between atoms: _344  and  _345
REMARK  131  A    between atoms: _349  and  _350
REMARK  132  A    between atoms: _356  and  _357
REMARK  133  A    between atoms: _362  and  _364
REMARK  134  A    between atoms: _364  and  _365
REMARK  135  A    between atoms: _364  and  _367
REMARK  136  A    between atoms: _367  and  _368
REMARK  137  A    between atoms: _371  and  _373
REMARK  138  A    between atoms: _373  and  _374
REMARK  139  A    between atoms: _373  and  _376
REMARK  140  A    between atoms: _376  and  _377
REMARK  141  A    between atoms: _380  and  _382
REMARK  142  A    between atoms: _382  and  _383
REMARK  143  A    between atoms: _382  and  _385
REMARK  144  A    between atoms: _387  and  _389
REMARK  145  A    between atoms: _389  and  _390
REMARK  146  A    between atoms: _389  and  _392
REMARK  147  A    between atoms: _395  and  _397
REMARK  148  A    between atoms: _397  and  _398
REMARK  149  A    between atoms: _397  and  _400
REMARK  150  A    between atoms: _400  and  _401
REMARK  151  A    between atoms: _411  and  _413
REMARK  152  A    between atoms: _413  and  _414
REMARK  153  A    between atoms: _413  and  _416
REMARK  154  A    between atoms: _416  and  _417
REMARK  155  A    between atoms: _422  and  _424
REMARK  156  A    between atoms: _424  and  _425
REMARK  157  A    between atoms: _424  and  _427
REMARK  158  A    between atoms: _427  and  _428
REMARK  159  A    between atoms: _428  and  _429
REMARK  160  A    between atoms: _429  and  _430
REMARK                            x       y       z     vdW  Elec       q    Type
REMARK                         _______ _______ _______ _____ _____    ______ ____
ROOT
ATOM      1  CG  TYR A   1       2.092  -7.032  11.941  0.00  0.00    -0.020 A 
ATOM      2  CD2 TYR A   1       1.696  -7.031  13.272  0.00  0.00    -0.001 A 
ATOM      3  CE2 TYR A   1       0.846  -6.032  13.756  0.00  0.00    +0.036 A 
ATOM      4  CZ  TYR A   1       0.384  -5.052  12.916  0.00  0.00    +0.134 A 
ATOM      5  CE1 TYR A   1       0.763  -5.031  11.589  0.00  0.00    +0.036 A 
ATOM      6  CD1 TYR A   1       1.612  -6.018  11.127  0.00  0.00    -0.001 A 
ENDROOT
BRANCH   4   7
ATOM      7  OH  TYR A   1      -0.464  -4.058  13.366  0.00  0.00    -0.506 OA
ATOM      8  HH  TYR A   1      -0.651  -4.196  14.328  0.00  0.00    +0.292 HD
ENDBRANCH   4   7
BRANCH   1   9
ATOM      9  CB  TYR A   1       3.021  -8.094  11.361  0.00  0.00    +0.051 C 
BRANCH   9  10
ATOM     10  CA  TYR A   1       4.496  -7.769  11.601  0.00  0.00    +0.137 C 
BRANCH  10  11
ATOM     11  N   TYR A   1       4.879  -6.607  10.801  0.00  0.00    -0.239 NA
ATOM     12  H   TYR A   1       4.903  -6.680   9.764  0.00  0.00    +0.142 HD
ENDBRANCH  10  11
BRANCH  10  13
ATOM     13  C   TYR A   1       5.379  -8.977  11.323  0.00  0.00    +0.224 C 
ATOM     14  O   TYR A   1       5.122 -10.080  11.814  0.00  0.00    -0.287 OA
ENDBRANCH  10  13
ENDBRANCH   9  10
ENDBRANCH   1   9
TORSDOF 5
REMARK  Name = ../refined-set-2016/3dbu/3dbu_pocket.pdb
REMARK  160 active torsions:
REMARK  status: ('A' for Active; 'I' for Inactive)
REMARK    1  A    between atoms: _1  and  _3
REMARK    2  A    between atoms: _3  and  _4
REMARK    3  A    between atoms: _3  and  _6
REMARK    4  A    between atoms: _6  and  _7
REMARK    5  A    between atoms: _17  and  _19
REMARK    6  A    between atoms: _19  and  _20
REMARK    7  A    between atoms: _19  and  _22
REMARK    8  A    between atoms: _22  and  _23
REMARK    9  A    between atoms: _28  and  _29
REMARK   10  A    between atoms: _31  and  _33
REMARK   11  A    between atoms: _33  and  _34
REMARK   12  A    between atoms: _33  and  _36
REMARK   13  A    between atoms: _36  and  _37
REMARK   14  A    between atoms: _40  and  _41
REMARK   15  A    between atoms: _46  and  _48
REMARK   16  A    between atoms: _48  and  _49
REMARK   17  A    between atoms: _48  and  _51
REMARK   18  A    between atoms: _51  and  _52
REMARK   19  A    between atoms: _57  and  _59
REMARK   20  A    between atoms: _59  and  _60
REMARK   21  A    between atoms: _59  and  _62
REMARK   22  A    between atoms: _62  and  _63
REMARK   23  A    between atoms: _68  and  _70
REMARK   24  A    between atoms: _70  and  _71
REMARK   25  A    between atoms: _70  and  _73
REMARK   26  A    between atoms: _73  and  _74
REMARK   27  A    between atoms: _76  and  _78
REMARK   28  A    between atoms: _78  and  _79
REMARK   29  A    between atoms: _78  and  _81
REMARK   30  A    between atoms: _81  and  _82
REMARK   31  A    between atoms: _82  and  _83
REMARK   32  A    between atoms: _88  and  _90
REMARK   33  A    between atoms: _90  and  _91
REMARK   34  A    between atoms: _90  and  _93
REMARK   35  A    between atoms: _93  and  _94
REMARK   36  A    between atoms: _94  and  _95
REMARK   37  A    between atoms: _98  and  _100
REMARK   38  A    between atoms: _100  and  _101
REMARK   39  A    between atoms: _100  and  _103
REMARK   40  A    between atoms: _103  and  _104
REMARK   41  A    between atoms: _107  and  _109
REMARK   42  A    between atoms: _109  and  _110
REMARK   43  A    between atoms: _109  and  _112
REMARK   44  A    between atoms: _112  and  _113
REMARK   45  A    between atoms: _113  and  _114
REMARK   46  A    between atoms: _119  and  _121
REMARK   47  A    between atoms: _121  and  _122
REMARK   48  A    between atoms: _121  and  _124
REMARK   49  A    between atoms: _124  and  _125
REMARK   50  A    between atoms: _131  and  _133
REMARK   51  A    between atoms: _144  and  _147
REMARK   52  A    between atoms: _147  and  _148
REMARK   53  A    between atoms: _156  and  _157
REMARK   54  A    between atoms: _165  and  _167
REMARK   55  A    between atoms: _167  and  _168
REMARK   56  A    between atoms: _167  and  _170
REMARK   57  A    between atoms: _170  and  _171
REMARK   58  A    between atoms: _171  and  _172
REMARK   59  A    between atoms: _175  and  _177
REMARK   60  A    between atoms: _177  and  _178
REMARK   61  A    between atoms: _177  and  _180
REMARK   62  A    between atoms: _180  and  _181
REMARK   63  A    between atoms: _186  and  _188
REMARK   64  A    between atoms: _188  and  _189
REMARK   65  A    between atoms: _188  and  _191
REMARK   66  A    between atoms: _191  and  _192
REMARK   67  A    between atoms: _192  and  _193
REMARK   68  A    between atoms: _196  and  _198
REMARK   69  A    between atoms: _198  and  _199
REMARK   70  A    between atoms: _198  and  _201
REMARK   71  A    between atoms: _201  and  _202
REMARK   72  A    between atoms: _205  and  _207
REMARK   73  A    between atoms: _207  and  _208
REMARK   74  A    between atoms: _207  and  _210
REMARK   75  A    between atoms: _210  and  _211
REMARK   76  A    between atoms: _212  and  ZN_439
REMARK   77  A    between atoms: _216  and  _218
REMARK   78  A    between atoms: _218  and  _219
REMARK   79  A    between atoms: _218  and  _221
REMARK   80  A    between atoms: _221  and  _222
REMARK   81  A    between atoms: _225  and  _227
REMARK   82  A    between atoms: _227  and  _228
REMARK   83  A    between atoms: _227  and  _230
REMARK   84  A    between atoms: _233  and  _235
REMARK   85  A    between atoms: _235  and  _236
REMARK   86  A    between atoms: _235  and  _238
REMARK   87  A    between atoms: _238  and  _239
REMARK   88  A    between atoms: _244  and  _246
REMARK   89  A    between atoms: _246  and  _247
REMARK   90  A    between atoms: _246  and  _249
REMARK   91  A    between atoms: _249  and  _250
REMARK   92  A    between atoms: _256  and  _258
REMARK   93  A    between atoms: _258  and  _259
REMARK   94  A    between atoms: _261  and  _263
REMARK   95  A    between atoms: _263  and  _264
REMARK   96  A    between atoms: _263  and  _266
REMARK   97  A    between atoms: _269  and  _271
REMARK   98  A    between atoms: _271  and  _272
REMARK   99  A    between atoms: _271  and  _274
REMARK  100  A    between atoms: _274  and  _275
REMARK  101  A    between atoms: _275  and  _276
REMARK  102  A    between atoms: _281  and  _283
REMARK  103  A    between atoms: _283  and  _284
REMARK  104  A    between atoms: _283  and  _286
REMARK  105  A    between atoms: _286  and  _287
REMARK  106  A    between atoms: _290  and  _292
REMARK  107  A    between atoms: _292  and  _293
REMARK  108  A    between atoms: _296  and  _298
REMARK  109  A    between atoms: _298  and  _299
REMARK  110  A    between atoms: _298  and  _301
REMARK  111  A    between atoms: _304  and  _306
REMARK  112  A    between atoms: _306  and  _307
REMARK  113  A    between atoms: _306  and  _309
REMARK  114  A    between atoms: _309  and  _310
REMARK  115  A    between atoms: _313  and  _315
REMARK  116  A    between atoms: _315  and  _316
REMARK  117  A    between atoms: _315  and  _318
REMARK  118  A    between atoms: _318  and  _319
REMARK  119  A    between atoms: _321  and  _323
REMARK  120  A    between atoms: _323  and  _324
REMARK  121  A    between atoms: _323  and  _326
REMARK  122  A    between atoms: _326  and  _327
REMARK  123  A    between atoms: _330  and  _332
REMARK  124  A    between atoms: _332  and  _333
REMARK  125  A    between atoms: _332  and  _335
REMARK  126  A    between atoms: _335  and  _336
REMARK  127  A    between atoms: _339  and  _341
REMARK  128  A    between atoms: _341  and  _342
REMARK  129  A    between atoms: _341  and  _344
REMARK  130  A    between atoms: _344  and  _345
REMARK  131  A    between atoms: _349  and  _350
REMARK  132  A    between atoms: _356  and  _357
REMARK  133  A    between atoms: _362  and  _364
REMARK  134  A    between atoms: _364  and  _365
REMARK  135  A    between atoms: _364  and  _367
REMARK  136  A    between atoms: _367  and  _368
REMARK  137  A    between atoms: _371  and  _373
REMARK  138  A    between atoms: _373  and  _374
REMARK  139  A    between atoms: _373  and  _376
REMARK  140  A    between atoms: _376  and  _377
REMARK  141  A    between atoms: _380  and  _382
REMARK  142  A    between atoms: _382  and  _383
REMARK  143  A    between atoms: _382  and  _385
REMARK  144  A    between atoms: _387  and  _389
REMARK  145  A    between atoms: _389  and  _390
REMARK  146  A    between atoms: _389  and  _392
REMARK  147  A    between atoms: _395  and  _397
REMARK  148  A    between atoms: _397  and  _398
REMARK  149  A    between atoms: _397  and  _400
REMARK  150  A    between atoms: _400  and  _401
REMARK  151  A    between atoms: _411  and  _413
REMARK  152  A    between atoms: _413  and  _414
REMARK  153  A    between atoms: _413  and  _416
REMARK  154  A    between atoms: _416  and  _417
REMARK  155  A    between atoms: _422  and  _424
REMARK  156  A    between atoms: _424  and  _425
REMARK  157  A    between atoms: _424  and  _427
REMARK  158  A    between atoms: _427  and  _428
REMARK  159  A    between atoms: _428  and  _429
REMARK  160  A    between atoms: _429  and  _430
REMARK                            x       y       z     vdW  Elec       q    Type
REMARK                         _______ _______ _______ _____ _____    ______ ____
ROOT
ATOM      1  C   SER A   1      -2.249  -3.099  23.361  0.00  0.00    +0.244 C 
ATOM      2  N   PRO A   2      -2.841  -4.257  23.074  0.00  0.00    -0.273 N 
ATOM      3  CA  PRO A   2      -4.047  -4.754  23.723  0.00  0.00    +0.140 C 
ATOM      4  CB  PRO A   2      -4.542  -5.772  22.692  0.00  0.00    +0.030 C 
ATOM      5  CG  PRO A   2      -3.273  -6.350  22.120  0.00  0.00    +0.024 C 
ATOM      6  CD  PRO A   2      -2.355  -5.157  21.993  0.00  0.00    +0.094 C 
ATOM      7  O   SER A   1      -1.284  -2.709  22.698  0.00  0.00    -0.273 OA
ENDROOT
BRANCH   3   8
ATOM      8  C   PRO A   2      -3.730  -5.457  25.046  0.00  0.00    +0.227 C 
ATOM      9  O   PRO A   2      -2.552  -5.489  25.388  0.00  0.00    -0.286 OA
ENDBRANCH   3   8
BRANCH   1  10
ATOM     10  CA  SER A   1      -2.792  -2.174  24.453  0.00  0.00    +0.175 C 
BRANCH  10  11
ATOM     11  N   SER A   1      -1.742  -1.269  24.911  0.00  0.00    -0.236 NA
ATOM     12  H   SER A   1      -1.262  -0.664  24.215  0.00  0.00    +0.142 HD
ENDBRANCH  10  11
BRANCH  10  13
ATOM     13  CB  SER A   1      -3.988  -1.411  23.855  0.00  0.00    +0.163 C 
BRANCH  13  14
ATOM     14  OG  SER A   1      -4.637  -0.646  24.848  0.00  0.00    -0.380 OA
ATOM     15  H   SER A   1      -4.965  -1.246  25.564  0.00  0.00    +0.211 HD
ENDBRANCH  13  14
ENDBRANCH  10  13
ENDBRANCH   1  10
TORSDOF 5
REMARK  Name = ../refined-set-2016/3dbu/3dbu_pocket.pdb
REMARK  160 active torsions:
REMARK  status: ('A' for Active; 'I' for Inactive)
REMARK    1  A    between atoms: _1  and  _3
REMARK    2  A    between atoms: _3  and  _4
REMARK    3  A    between atoms: _3  and  _6
REMARK    4  A    between atoms: _6  and  _7
REMARK    5  A    between atoms: _17  and  _19
REMARK    6  A    between atoms: _19  and  _20
REMARK    7  A    between atoms: _19  and  _22
REMARK    8  A    between atoms: _22  and  _23
REMARK    9  A    between atoms: _28  and  _29
REMARK   10  A    between atoms: _31  and  _33
REMARK   11  A    between atoms: _33  and  _34
REMARK   12  A    between atoms: _33  and  _36
REMARK   13  A    between atoms: _36  and  _37
REMARK   14  A    between atoms: _40  and  _41
REMARK   15  A    between atoms: _46  and  _48
REMARK   16  A    between atoms: _48  and  _49
REMARK   17  A    between atoms: _48  and  _51
REMARK   18  A    between atoms: _51  and  _52
REMARK   19  A    between atoms: _57  and  _59
REMARK   20  A    between atoms: _59  and  _60
REMARK   21  A    between atoms: _59  and  _62
REMARK   22  A    between atoms: _62  and  _63
REMARK   23  A    between atoms: _68  and  _70
REMARK   24  A    between atoms: _70  and  _71
REMARK   25  A    between atoms: _70  and  _73
REMARK   26  A    between atoms: _73  and  _74
REMARK   27  A    between atoms: _76  and  _78
REMARK   28  A    between atoms: _78  and  _79
REMARK   29  A    between atoms: _78  and  _81
REMARK   30  A    between atoms: _81  and  _82
REMARK   31  A    between atoms: _82  and  _83
REMARK   32  A    between atoms: _88  and  _90
REMARK   33  A    between atoms: _90  and  _91
REMARK   34  A    between atoms: _90  and  _93
REMARK   35  A    between atoms: _93  and  _94
REMARK   36  A    between atoms: _94  and  _95
REMARK   37  A    between atoms: _98  and  _100
REMARK   38  A    between atoms: _100  and  _101
REMARK   39  A    between atoms: _100  and  _103
REMARK   40  A    between atoms: _103  and  _104
REMARK   41  A    between atoms: _107  and  _109
REMARK   42  A    between atoms: _109  and  _110
REMARK   43  A    between atoms: _109  and  _112
REMARK   44  A    between atoms: _112  and  _113
REMARK   45  A    between atoms: _113  and  _114
REMARK   46  A    between atoms: _119  and  _121
REMARK   47  A    between atoms: _121  and  _122
REMARK   48  A    between atoms: _121  and  _124
REMARK   49  A    between atoms: _124  and  _125
REMARK   50  A    between atoms: _131  and  _133
REMARK   51  A    between atoms: _144  and  _147
REMARK   52  A    between atoms: _147  and  _148
REMARK   53  A    between atoms: _156  and  _157
REMARK   54  A    between atoms: _165  and  _167
REMARK   55  A    between atoms: _167  and  _168
REMARK   56  A    between atoms: _167  and  _170
REMARK   57  A    between atoms: _170  and  _171
REMARK   58  A    between atoms: _171  and  _172
REMARK   59  A    between atoms: _175  and  _177
REMARK   60  A    between atoms: _177  and  _178
REMARK   61  A    between atoms: _177  and  _180
REMARK   62  A    between atoms: _180  and  _181
REMARK   63  A    between atoms: _186  and  _188
REMARK   64  A    between atoms: _188  and  _189
REMARK   65  A    between atoms: _188  and  _191
REMARK   66  A    between atoms: _191  and  _192
REMARK   67  A    between atoms: _192  and  _193
REMARK   68  A    between atoms: _196  and  _198
REMARK   69  A    between atoms: _198  and  _199
REMARK   70  A    between atoms: _198  and  _201
REMARK   71  A    between atoms: _201  and  _202
REMARK   72  A    between atoms: _205  and  _207
REMARK   73  A    between atoms: _207  and  _208
REMARK   74  A    between atoms: _207  and  _210
REMARK   75  A    between atoms: _210  and  _211
REMARK   76  A    between atoms: _212  and  ZN_439
REMARK   77  A    between atoms: _216  and  _218
REMARK   78  A    between atoms: _218  and  _219
REMARK   79  A    between atoms: _218  and  _221
REMARK   80  A    between atoms: _221  and  _222
REMARK   81  A    between atoms: _225  and  _227
REMARK   82  A    between atoms: _227  and  _228
REMARK   83  A    between atoms: _227  and  _230
REMARK   84  A    between atoms: _233  and  _235
REMARK   85  A    between atoms: _235  and  _236
REMARK   86  A    between atoms: _235  and  _238
REMARK   87  A    between atoms: _238  and  _239
REMARK   88  A    between atoms: _244  and  _246
REMARK   89  A    between atoms: _246  and  _247
REMARK   90  A    between atoms: _246  and  _249
REMARK   91  A    between atoms: _249  and  _250
REMARK   92  A    between atoms: _256  and  _258
REMARK   93  A    between atoms: _258  and  _259
REMARK   94  A    between atoms: _261  and  _263
REMARK   95  A    between atoms: _263  and  _264
REMARK   96  A    between atoms: _263  and  _266
REMARK   97  A    between atoms: _269  and  _271
REMARK   98  A    between atoms: _271  and  _272
REMARK   99  A    between atoms: _271  and  _274
REMARK  100  A    between atoms: _274  and  _275
REMARK  101  A    between atoms: _275  and  _276
REMARK  102  A    between atoms: _281  and  _283
REMARK  103  A    between atoms: _283  and  _284
REMARK  104  A    between atoms: _283  and  _286
REMARK  105  A    between atoms: _286  and  _287
REMARK  106  A    between atoms: _290  and  _292
REMARK  107  A    between atoms: _292  and  _293
REMARK  108  A    between atoms: _296  and  _298
REMARK  109  A    between atoms: _298  and  _299
REMARK  110  A    between atoms: _298  and  _301
REMARK  111  A    between atoms: _304  and  _306
REMARK  112  A    between atoms: _306  and  _307
REMARK  113  A    between atoms: _306  and  _309
REMARK  114  A    between atoms: _309  and  _310
REMARK  115  A    between atoms: _313  and  _315
REMARK  116  A    between atoms: _315  and  _316
REMARK  117  A    between atoms: _315  and  _318
REMARK  118  A    between atoms: _318  and  _319
REMARK  119  A    between atoms: _321  and  _323
REMARK  120  A    between atoms: _323  and  _324
REMARK  121  A    between atoms: _323  and  _326
REMARK  122  A    between atoms: _326  and  _327
REMARK  123  A    between atoms: _330  and  _332
REMARK  124  A    between atoms: _332  and  _333
REMARK  125  A    between atoms: _332  and  _335
REMARK  126  A    between atoms: _335  and  _336
REMARK  127  A    between atoms: _339  and  _341
REMARK  128  A    between atoms: _341  and  _342
REMARK  129  A    between atoms: _341  and  _344
REMARK  130  A    between atoms: _344  and  _345
REMARK  131  A    between atoms: _349  and  _350
REMARK  132  A    between atoms: _356  and  _357
REMARK  133  A    between atoms: _362  and  _364
REMARK  134  A    between atoms: _364  and  _365
REMARK  135  A    between atoms: _364  and  _367
REMARK  136  A    between atoms: _367  and  _368
REMARK  137  A    between atoms: _371  and  _373
REMARK  138  A    between atoms: _373  and  _374
REMARK  139  A    between atoms: _373  and  _376
REMARK  140  A    between atoms: _376  and  _377
REMARK  141  A    between atoms: _380  and  _382
REMARK  142  A    between atoms: _382  and  _383
REMARK  143  A    between atoms: _382  and  _385
REMARK  144  A    between atoms: _387  and  _389
REMARK  145  A    between atoms: _389  and  _390
REMARK  146  A    between atoms: _389  and  _392
REMARK  147  A    between atoms: _395  and  _397
REMARK  148  A    between atoms: _397  and  _398
REMARK  149  A    between atoms: _397  and  _400
REMARK  150  A    between atoms: _400  and  _401
REMARK  151  A    between atoms: _411  and  _413
REMARK  152  A    between atoms: _413  and  _414
REMARK  153  A    between atoms: _413  and  _416
REMARK  154  A    between atoms: _416  and  _417
REMARK  155  A    between atoms: _422  and  _424
REMARK  156  A    between atoms: _424  and  _425
REMARK  157  A    between atoms: _424  and  _427
REMARK  158  A    between atoms: _427  and  _428
REMARK  159  A    between atoms: _428  and  _429
REMARK  160  A    between atoms: _429  and  _430
REMARK                            x       y       z     vdW  Elec       q    Type
REMARK                         _______ _______ _______ _____ _____    ______ ____
ROOT
ATOM      1  CB  ASN A   1      -3.069   2.011   5.535  0.00  0.00    +0.110 C 
ENDROOT
BRANCH   1   2
ATOM      2  CG  ASN A   1      -3.344   1.035   6.664  0.00  0.00    +0.221 C 
ATOM      3  ND2 ASN A   1      -4.371   1.275   7.473  0.00  0.00    -0.329 N 
ATOM      4 HD21 ASN A   1      -4.585   0.618   8.251  0.00  0.00    +0.145 HD
ATOM      5 HD22 ASN A   1      -4.961   2.119   7.328  0.00  0.00    +0.145 HD
ATOM      6  OD1 ASN A   1      -2.638   0.051   6.814  0.00  0.00    -0.275 OA
ENDBRANCH   1   2
BRANCH   1   7
ATOM      7  CA  ASN A   1      -2.593   1.316   4.250  0.00  0.00    +0.142 C 
BRANCH   7   8
ATOM      8  N   ASN A   1      -3.612   0.379   3.744  0.00  0.00    -0.239 NA
ATOM      9  H   ASN A   1      -4.120  -0.256   4.393  0.00  0.00    +0.142 HD
ENDBRANCH   7   8
BRANCH   7  10
ATOM     10  C   ASN A   1      -1.257   0.611   4.463  0.00  0.00    +0.225 C 
ATOM     11  O   ASN A   1      -0.330   1.212   4.992  0.00  0.00    -0.287 OA
ENDBRANCH   7  10
ENDBRANCH   1   7
TORSDOF 4
REMARK  Name = ../refined-set-2016/3dbu/3dbu_pocket.pdb
REMARK  160 active torsions:
REMARK  status: ('A' for Active; 'I' for Inactive)
REMARK    1  A    between atoms: _1  and  _3
REMARK    2  A    between atoms: _3  and  _4
REMARK    3  A    between atoms: _3  and  _6
REMARK    4  A    between atoms: _6  and  _7
REMARK    5  A    between atoms: _17  and  _19
REMARK    6  A    between atoms: _19  and  _20
REMARK    7  A    between atoms: _19  and  _22
REMARK    8  A    between atoms: _22  and  _23
REMARK    9  A    between atoms: _28  and  _29
REMARK   10  A    between atoms: _31  and  _33
REMARK   11  A    between atoms: _33  and  _34
REMARK   12  A    between atoms: _33  and  _36
REMARK   13  A    between atoms: _36  and  _37
REMARK   14  A    between atoms: _40  and  _41
REMARK   15  A    between atoms: _46  and  _48
REMARK   16  A    between atoms: _48  and  _49
REMARK   17  A    between atoms: _48  and  _51
REMARK   18  A    between atoms: _51  and  _52
REMARK   19  A    between atoms: _57  and  _59
REMARK   20  A    between atoms: _59  and  _60
REMARK   21  A    between atoms: _59  and  _62
REMARK   22  A    between atoms: _62  and  _63
REMARK   23  A    between atoms: _68  and  _70
REMARK   24  A    between atoms: _70  and  _71
REMARK   25  A    between atoms: _70  and  _73
REMARK   26  A    between atoms: _73  and  _74
REMARK   27  A    between atoms: _76  and  _78
REMARK   28  A    between atoms: _78  and  _79
REMARK   29  A    between atoms: _78  and  _81
REMARK   30  A    between atoms: _81  and  _82
REMARK   31  A    between atoms: _82  and  _83
REMARK   32  A    between atoms: _88  and  _90
REMARK   33  A    between atoms: _90  and  _91
REMARK   34  A    between atoms: _90  and  _93
REMARK   35  A    between atoms: _93  and  _94
REMARK   36  A    between atoms: _94  and  _95
REMARK   37  A    between atoms: _98  and  _100
REMARK   38  A    between atoms: _100  and  _101
REMARK   39  A    between atoms: _100  and  _103
REMARK   40  A    between atoms: _103  and  _104
REMARK   41  A    between atoms: _107  and  _109
REMARK   42  A    between atoms: _109  and  _110
REMARK   43  A    between atoms: _109  and  _112
REMARK   44  A    between atoms: _112  and  _113
REMARK   45  A    between atoms: _113  and  _114
REMARK   46  A    between atoms: _119  and  _121
REMARK   47  A    between atoms: _121  and  _122
REMARK   48  A    between atoms: _121  and  _124
REMARK   49  A    between atoms: _124  and  _125
REMARK   50  A    between atoms: _131  and  _133
REMARK   51  A    between atoms: _144  and  _147
REMARK   52  A    between atoms: _147  and  _148
REMARK   53  A    between atoms: _156  and  _157
REMARK   54  A    between atoms: _165  and  _167
REMARK   55  A    between atoms: _167  and  _168
REMARK   56  A    between atoms: _167  and  _170
REMARK   57  A    between atoms: _170  and  _171
REMARK   58  A    between atoms: _171  and  _172
REMARK   59  A    between atoms: _175  and  _177
REMARK   60  A    between atoms: _177  and  _178
REMARK   61  A    between atoms: _177  and  _180
REMARK   62  A    between atoms: _180  and  _181
REMARK   63  A    between atoms: _186  and  _188
REMARK   64  A    between atoms: _188  and  _189
REMARK   65  A    between atoms: _188  and  _191
REMARK   66  A    between atoms: _191  and  _192
REMARK   67  A    between atoms: _192  and  _193
REMARK   68  A    between atoms: _196  and  _198
REMARK   69  A    between atoms: _198  and  _199
REMARK   70  A    between atoms: _198  and  _201
REMARK   71  A    between atoms: _201  and  _202
REMARK   72  A    between atoms: _205  and  _207
REMARK   73  A    between atoms: _207  and  _208
REMARK   74  A    between atoms: _207  and  _210
REMARK   75  A    between atoms: _210  and  _211
REMARK   76  A    between atoms: _212  and  ZN_439
REMARK   77  A    between atoms: _216  and  _218
REMARK   78  A    between atoms: _218  and  _219
REMARK   79  A    between atoms: _218  and  _221
REMARK   80  A    between atoms: _221  and  _222
REMARK   81  A    between atoms: _225  and  _227
REMARK   82  A    between atoms: _227  and  _228
REMARK   83  A    between atoms: _227  and  _230
REMARK   84  A    between atoms: _233  and  _235
REMARK   85  A    between atoms: _235  and  _236
REMARK   86  A    between atoms: _235  and  _238
REMARK   87  A    between atoms: _238  and  _239
REMARK   88  A    between atoms: _244  and  _246
REMARK   89  A    between atoms: _246  and  _247
REMARK   90  A    between atoms: _246  and  _249
REMARK   91  A    between atoms: _249  and  _250
REMARK   92  A    between atoms: _256  and  _258
REMARK   93  A    between atoms: _258  and  _259
REMARK   94  A    between atoms: _261  and  _263
REMARK   95  A    between atoms: _263  and  _264
REMARK   96  A    between atoms: _263  and  _266
REMARK   97  A    between atoms: _269  and  _271
REMARK   98  A    between atoms: _271  and  _272
REMARK   99  A    between atoms: _271  and  _274
REMARK  100  A    between atoms: _274  and  _275
REMARK  101  A    between atoms: _275  and  _276
REMARK  102  A    between atoms: _281  and  _283
REMARK  103  A    between atoms: _283  and  _284
REMARK  104  A    between atoms: _283  and  _286
REMARK  105  A    between atoms: _286  and  _287
REMARK  106  A    between atoms: _290  and  _292
REMARK  107  A    between atoms: _292  and  _293
REMARK  108  A    between atoms: _296  and  _298
REMARK  109  A    between atoms: _298  and  _299
REMARK  110  A    between atoms: _298  and  _301
REMARK  111  A    between atoms: _304  and  _306
REMARK  112  A    between atoms: _306  and  _307
REMARK  113  A    between atoms: _306  and  _309
REMARK  114  A    between atoms: _309  and  _310
REMARK  115  A    between atoms: _313  and  _315
REMARK  116  A    between atoms: _315  and  _316
REMARK  117  A    between atoms: _315  and  _318
REMARK  118  A    between atoms: _318  and  _319
REMARK  119  A    between atoms: _321  and  _323
REMARK  120  A    between atoms: _323  and  _324
REMARK  121  A    between atoms: _323  and  _326
REMARK  122  A    between atoms: _326  and  _327
REMARK  123  A    between atoms: _330  and  _332
REMARK  124  A    between atoms: _332  and  _333
REMARK  125  A    between atoms: _332  and  _335
REMARK  126  A    between atoms: _335  and  _336
REMARK  127  A    between atoms: _339  and  _341
REMARK  128  A    between atoms: _341  and  _342
REMARK  129  A    between atoms: _341  and  _344
REMARK  130  A    between atoms: _344  and  _345
REMARK  131  A    between atoms: _349  and  _350
REMARK  132  A    between atoms: _356  and  _357
REMARK  133  A    between atoms: _362  and  _364
REMARK  134  A    between atoms: _364  and  _365
REMARK  135  A    between atoms: _364  and  _367
REMARK  136  A    between atoms: _367  and  _368
REMARK  137  A    between atoms: _371  and  _373
REMARK  138  A    between atoms: _373  and  _374
REMARK  139  A    between atoms: _373  and  _376
REMARK  140  A    between atoms: _376  and  _377
REMARK  141  A    between atoms: _380  and  _382
REMARK  142  A    between atoms: _382  and  _383
REMARK  143  A    between atoms: _382  and  _385
REMARK  144  A    between atoms: _387  and  _389
REMARK  145  A    between atoms: _389  and  _390
REMARK  146  A    between atoms: _389  and  _392
REMARK  147  A    between atoms: _395  and  _397
REMARK  148  A    between atoms: _397  and  _398
REMARK  149  A    between atoms: _397  and  _400
REMARK  150  A    between atoms: _400  and  _401
REMARK  151  A    between atoms: _411  and  _413
REMARK  152  A    between atoms: _413  and  _414
REMARK  153  A    between atoms: _413  and  _416
REMARK  154  A    between atoms: _416  and  _417
REMARK  155  A    between atoms: _422  and  _424
REMARK  156  A    between atoms: _424  and  _425
REMARK  157  A    between atoms: _424  and  _427
REMARK  158  A    between atoms: _427  and  _428
REMARK  159  A    between atoms: _428  and  _429
REMARK  160  A    between atoms: _429  and  _430
REMARK                            x       y       z     vdW  Elec       q    Type
REMARK                         _______ _______ _______ _____ _____    ______ ____
ROOT
ATOM      1  C   HIS A   1      -2.158  -3.447   7.885  0.00  0.00    +0.239 C 
ATOM      2  O   HIS A   1      -2.303  -4.389   8.654  0.00  0.00    -0.274 OA
ATOM      3  N   SER A   2      -3.167  -2.852   7.274  0.00  0.00    -0.296 N 
ATOM      4  H   SER A   2      -2.959  -2.026   6.677  0.00  0.00    +0.150 HD
ENDROOT
BRANCH   1   5
ATOM      5  CA  HIS A   1      -0.769  -2.887   7.572  0.00  0.00    +0.151 C 
BRANCH   5   6
ATOM      6  N   HIS A   1      -0.823  -2.043   6.373  0.00  0.00    -0.238 NA
ATOM      7  H   HIS A   1      -1.548  -1.304   6.274  0.00  0.00    +0.142 HD
ENDBRANCH   5   6
BRANCH   5   8
ATOM      8  CB  HIS A   1      -0.245  -2.213   8.820  0.00  0.00    +0.074 C 
BRANCH   8   9
ATOM      9  CG  HIS A   1      -0.839  -0.928   9.260  0.00  0.00    +0.082 A 
ATOM     10  ND1 HIS A   1      -1.900  -0.844  10.137  0.00  0.00    -0.227 NA
ATOM     11  CE1 HIS A   1      -2.205   0.423  10.351  0.00  0.00    +0.199 A 
ATOM     12  NE2 HIS A   1      -1.374   1.168   9.641  0.00  0.00    -0.221 NA
ATOM     13  CD2 HIS A   1      -0.504   0.353   8.954  0.00  0.00    +0.115 A 
ENDBRANCH   8   9
ENDBRANCH   5   8
ENDBRANCH   1   5
BRANCH   3  14
ATOM     14  CA  SER A   2      -4.554  -3.285   7.388  0.00  0.00    +0.166 C 
BRANCH  14  15
ATOM     15  C   SER A   2      -5.322  -2.635   6.241  0.00  0.00    +0.229 C 
ATOM     16  O   SER A   2      -4.661  -2.092   5.353  0.00  0.00    -0.286 OA
ENDBRANCH  14  15
BRANCH  14  17
ATOM     17  CB  SER A   2      -5.135  -2.899   8.745  0.00  0.00    +0.165 C 
BRANCH  17  18
ATOM     18  OG  SER A   2      -6.468  -3.354   8.927  0.00  0.00    -0.380 OA
ATOM     19  H   SER A   2      -6.791  -3.076   9.820  0.00  0.00    +0.211 HD
ENDBRANCH  17  18
ENDBRANCH  14  17
ENDBRANCH   3  14
TORSDOF 8
REMARK  Name = ../refined-set-2016/3dbu/3dbu_pocket.pdb
REMARK  160 active torsions:
REMARK  status: ('A' for Active; 'I' for Inactive)
REMARK    1  A    between atoms: _1  and  _3
REMARK    2  A    between atoms: _3  and  _4
REMARK    3  A    between atoms: _3  and  _6
REMARK    4  A    between atoms: _6  and  _7
REMARK    5  A    between atoms: _17  and  _19
REMARK    6  A    between atoms: _19  and  _20
REMARK    7  A    between atoms: _19  and  _22
REMARK    8  A    between atoms: _22  and  _23
REMARK    9  A    between atoms: _28  and  _29
REMARK   10  A    between atoms: _31  and  _33
REMARK   11  A    between atoms: _33  and  _34
REMARK   12  A    between atoms: _33  and  _36
REMARK   13  A    between atoms: _36  and  _37
REMARK   14  A    between atoms: _40  and  _41
REMARK   15  A    between atoms: _46  and  _48
REMARK   16  A    between atoms: _48  and  _49
REMARK   17  A    between atoms: _48  and  _51
REMARK   18  A    between atoms: _51  and  _52
REMARK   19  A    between atoms: _57  and  _59
REMARK   20  A    between atoms: _59  and  _60
REMARK   21  A    between atoms: _59  and  _62
REMARK   22  A    between atoms: _62  and  _63
REMARK   23  A    between atoms: _68  and  _70
REMARK   24  A    between atoms: _70  and  _71
REMARK   25  A    between atoms: _70  and  _73
REMARK   26  A    between atoms: _73  and  _74
REMARK   27  A    between atoms: _76  and  _78
REMARK   28  A    between atoms: _78  and  _79
REMARK   29  A    between atoms: _78  and  _81
REMARK   30  A    between atoms: _81  and  _82
REMARK   31  A    between atoms: _82  and  _83
REMARK   32  A    between atoms: _88  and  _90
REMARK   33  A    between atoms: _90  and  _91
REMARK   34  A    between atoms: _90  and  _93
REMARK   35  A    between atoms: _93  and  _94
REMARK   36  A    between atoms: _94  and  _95
REMARK   37  A    between atoms: _98  and  _100
REMARK   38  A    between atoms: _100  and  _101
REMARK   39  A    between atoms: _100  and  _103
REMARK   40  A    between atoms: _103  and  _104
REMARK   41  A    between atoms: _107  and  _109
REMARK   42  A    between atoms: _109  and  _110
REMARK   43  A    between atoms: _109  and  _112
REMARK   44  A    between atoms: _112  and  _113
REMARK   45  A    between atoms: _113  and  _114
REMARK   46  A    between atoms: _119  and  _121
REMARK   47  A    between atoms: _121  and  _122
REMARK   48  A    between atoms: _121  and  _124
REMARK   49  A    between atoms: _124  and  _125
REMARK   50  A    between atoms: _131  and  _133
REMARK   51  A    between atoms: _144  and  _147
REMARK   52  A    between atoms: _147  and  _148
REMARK   53  A    between atoms: _156  and  _157
REMARK   54  A    between atoms: _165  and  _167
REMARK   55  A    between atoms: _167  and  _168
REMARK   56  A    between atoms: _167  and  _170
REMARK   57  A    between atoms: _170  and  _171
REMARK   58  A    between atoms: _171  and  _172
REMARK   59  A    between atoms: _175  and  _177
REMARK   60  A    between atoms: _177  and  _178
REMARK   61  A    between atoms: _177  and  _180
REMARK   62  A    between atoms: _180  and  _181
REMARK   63  A    between atoms: _186  and  _188
REMARK   64  A    between atoms: _188  and  _189
REMARK   65  A    between atoms: _188  and  _191
REMARK   66  A    between atoms: _191  and  _192
REMARK   67  A    between atoms: _192  and  _193
REMARK   68  A    between atoms: _196  and  _198
REMARK   69  A    between atoms: _198  and  _199
REMARK   70  A    between atoms: _198  and  _201
REMARK   71  A    between atoms: _201  and  _202
REMARK   72  A    between atoms: _205  and  _207
REMARK   73  A    between atoms: _207  and  _208
REMARK   74  A    between atoms: _207  and  _210
REMARK   75  A    between atoms: _210  and  _211
REMARK   76  A    between atoms: _212  and  ZN_439
REMARK   77  A    between atoms: _216  and  _218
REMARK   78  A    between atoms: _218  and  _219
REMARK   79  A    between atoms: _218  and  _221
REMARK   80  A    between atoms: _221  and  _222
REMARK   81  A    between atoms: _225  and  _227
REMARK   82  A    between atoms: _227  and  _228
REMARK   83  A    between atoms: _227  and  _230
REMARK   84  A    between atoms: _233  and  _235
REMARK   85  A    between atoms: _235  and  _236
REMARK   86  A    between atoms: _235  and  _238
REMARK   87  A    between atoms: _238  and  _239
REMARK   88  A    between atoms: _244  and  _246
REMARK   89  A    between atoms: _246  and  _247
REMARK   90  A    between atoms: _246  and  _249
REMARK   91  A    between atoms: _249  and  _250
REMARK   92  A    between atoms: _256  and  _258
REMARK   93  A    between atoms: _258  and  _259
REMARK   94  A    between atoms: _261  and  _263
REMARK   95  A    between atoms: _263  and  _264
REMARK   96  A    between atoms: _263  and  _266
REMARK   97  A    between atoms: _269  and  _271
REMARK   98  A    between atoms: _271  and  _272
REMARK   99  A    between atoms: _271  and  _274
REMARK  100  A    between atoms: _274  and  _275
REMARK  101  A    between atoms: _275  and  _276
REMARK  102  A    between atoms: _281  and  _283
REMARK  103  A    between atoms: _283  and  _284
REMARK  104  A    between atoms: _283  and  _286
REMARK  105  A    between atoms: _286  and  _287
REMARK  106  A    between atoms: _290  and  _292
REMARK  107  A    between atoms: _292  and  _293
REMARK  108  A    between atoms: _296  and  _298
REMARK  109  A    between atoms: _298  and  _299
REMARK  110  A    between atoms: _298  and  _301
REMARK  111  A    between atoms: _304  and  _306
REMARK  112  A    between atoms: _306  and  _307
REMARK  113  A    between atoms: _306  and  _309
REMARK  114  A    between atoms: _309  and  _310
REMARK  115  A    between atoms: _313  and  _315
REMARK  116  A    between atoms: _315  and  _316
REMARK  117  A    between atoms: _315  and  _318
REMARK  118  A    between atoms: _318  and  _319
REMARK  119  A    between atoms: _321  and  _323
REMARK  120  A    between atoms: _323  and  _324
REMARK  121  A    between atoms: _323  and  _326
REMARK  122  A    between atoms: _326  and  _327
REMARK  123  A    between atoms: _330  and  _332
REMARK  124  A    between atoms: _332  and  _333
REMARK  125  A    between atoms: _332  and  _335
REMARK  126  A    between atoms: _335  and  _336
REMARK  127  A    between atoms: _339  and  _341
REMARK  128  A    between atoms: _341  and  _342
REMARK  129  A    between atoms: _341  and  _344
REMARK  130  A    between atoms: _344  and  _345
REMARK  131  A    between atoms: _349  and  _350
REMARK  132  A    between atoms: _356  and  _357
REMARK  133  A    between atoms: _362  and  _364
REMARK  134  A    between atoms: _364  and  _365
REMARK  135  A    between atoms: _364  and  _367
REMARK  136  A    between atoms: _367  and  _368
REMARK  137  A    between atoms: _371  and  _373
REMARK  138  A    between atoms: _373  and  _374
REMARK  139  A    between atoms: _373  and  _376
REMARK  140  A    between atoms: _376  and  _377
REMARK  141  A    between atoms: _380  and  _382
REMARK  142  A    between atoms: _382  and  _383
REMARK  143  A    between atoms: _382  and  _385
REMARK  144  A    between atoms: _387  and  _389
REMARK  145  A    between atoms: _389  and  _390
REMARK  146  A    between atoms: _389  and  _392
REMARK  147  A    between atoms: _395  and  _397
REMARK  148  A    between atoms: _397  and  _398
REMARK  149  A    between atoms: _397  and  _400
REMARK  150  A    between atoms: _400  and  _401
REMARK  151  A    between atoms: _411  and  _413
REMARK  152  A    between atoms: _413  and  _414
REMARK  153  A    between atoms: _413  and  _416
REMARK  154  A    between atoms: _416  and  _417
REMARK  155  A    between atoms: _422  and  _424
REMARK  156  A    between atoms: _424  and  _425
REMARK  157  A    between atoms: _424  and  _427
REMARK  158  A    between atoms: _427  and  _428
REMARK  159  A    between atoms: _428  and  _429
REMARK  160  A    between atoms: _429  and  _430
REMARK                            x       y       z     vdW  Elec       q    Type
REMARK                         _______ _______ _______ _____ _____    ______ ____
ROOT
ATOM      1  CB  GLN A   1      -8.712   2.125   7.393  0.00  0.00    +0.035 C 
ENDROOT
BRANCH   1   2
ATOM      2  CA  GLN A   1      -9.514   1.039   6.678  0.00  0.00    +0.134 C 
BRANCH   2   3
ATOM      3  N   GLN A   1      -8.665   0.216   5.820  0.00  0.00    -0.239 NA
ATOM      4  H   GLN A   1      -8.323   0.564   4.902  0.00  0.00    +0.142 HD
ENDBRANCH   2   3
BRANCH   2   5
ATOM      5  C   GLN A   1     -10.612   1.678   5.824  0.00  0.00    +0.224 C 
ATOM      6  O   GLN A   1     -10.324   2.007   4.670  0.00  0.00    -0.287 OA
ENDBRANCH   2   5
ENDBRANCH   1   2
BRANCH   1   7
ATOM      7  CG  GLN A   1      -8.018   3.072   6.430  0.00  0.00    +0.087 C 
BRANCH   7   8
ATOM      8  CD  GLN A   1      -7.090   4.034   7.149  0.00  0.00    +0.219 C 
ATOM      9  NE2 GLN A   1      -6.278   3.466   8.019  0.00  0.00    -0.329 N 
ATOM     10 HE21 GLN A   1      -5.605   4.047   8.558  0.00  0.00    +0.145 HD
ATOM     11 HE22 GLN A   1      -6.311   2.437   8.166  0.00  0.00    +0.145 HD
ATOM     12  OE1 GLN A   1      -7.124   5.243   6.907  0.00  0.00    -0.275 OA
ENDBRANCH   7   8
ENDBRANCH   1   7
TORSDOF 5
REMARK  Name = ../refined-set-2016/3dbu/3dbu_pocket.pdb
REMARK  160 active torsions:
REMARK  status: ('A' for Active; 'I' for Inactive)
REMARK    1  A    between atoms: _1  and  _3
REMARK    2  A    between atoms: _3  and  _4
REMARK    3  A    between atoms: _3  and  _6
REMARK    4  A    between atoms: _6  and  _7
REMARK    5  A    between atoms: _17  and  _19
REMARK    6  A    between atoms: _19  and  _20
REMARK    7  A    between atoms: _19  and  _22
REMARK    8  A    between atoms: _22  and  _23
REMARK    9  A    between atoms: _28  and  _29
REMARK   10  A    between atoms: _31  and  _33
REMARK   11  A    between atoms: _33  and  _34
REMARK   12  A    between atoms: _33  and  _36
REMARK   13  A    between atoms: _36  and  _37
REMARK   14  A    between atoms: _40  and  _41
REMARK   15  A    between atoms: _46  and  _48
REMARK   16  A    between atoms: _48  and  _49
REMARK   17  A    between atoms: _48  and  _51
REMARK   18  A    between atoms: _51  and  _52
REMARK   19  A    between atoms: _57  and  _59
REMARK   20  A    between atoms: _59  and  _60
REMARK   21  A    between atoms: _59  and  _62
REMARK   22  A    between atoms: _62  and  _63
REMARK   23  A    between atoms: _68  and  _70
REMARK   24  A    between atoms: _70  and  _71
REMARK   25  A    between atoms: _70  and  _73
REMARK   26  A    between atoms: _73  and  _74
REMARK   27  A    between atoms: _76  and  _78
REMARK   28  A    between atoms: _78  and  _79
REMARK   29  A    between atoms: _78  and  _81
REMARK   30  A    between atoms: _81  and  _82
REMARK   31  A    between atoms: _82  and  _83
REMARK   32  A    between atoms: _88  and  _90
REMARK   33  A    between atoms: _90  and  _91
REMARK   34  A    between atoms: _90  and  _93
REMARK   35  A    between atoms: _93  and  _94
REMARK   36  A    between atoms: _94  and  _95
REMARK   37  A    between atoms: _98  and  _100
REMARK   38  A    between atoms: _100  and  _101
REMARK   39  A    between atoms: _100  and  _103
REMARK   40  A    between atoms: _103  and  _104
REMARK   41  A    between atoms: _107  and  _109
REMARK   42  A    between atoms: _109  and  _110
REMARK   43  A    between atoms: _109  and  _112
REMARK   44  A    between atoms: _112  and  _113
REMARK   45  A    between atoms: _113  and  _114
REMARK   46  A    between atoms: _119  and  _121
REMARK   47  A    between atoms: _121  and  _122
REMARK   48  A    between atoms: _121  and  _124
REMARK   49  A    between atoms: _124  and  _125
REMARK   50  A    between atoms: _131  and  _133
REMARK   51  A    between atoms: _144  and  _147
REMARK   52  A    between atoms: _147  and  _148
REMARK   53  A    between atoms: _156  and  _157
REMARK   54  A    between atoms: _165  and  _167
REMARK   55  A    between atoms: _167  and  _168
REMARK   56  A    between atoms: _167  and  _170
REMARK   57  A    between atoms: _170  and  _171
REMARK   58  A    between atoms: _171  and  _172
REMARK   59  A    between atoms: _175  and  _177
REMARK   60  A    between atoms: _177  and  _178
REMARK   61  A    between atoms: _177  and  _180
REMARK   62  A    between atoms: _180  and  _181
REMARK   63  A    between atoms: _186  and  _188
REMARK   64  A    between atoms: _188  and  _189
REMARK   65  A    between atoms: _188  and  _191
REMARK   66  A    between atoms: _191  and  _192
REMARK   67  A    between atoms: _192  and  _193
REMARK   68  A    between atoms: _196  and  _198
REMARK   69  A    between atoms: _198  and  _199
REMARK   70  A    between atoms: _198  and  _201
REMARK   71  A    between atoms: _201  and  _202
REMARK   72  A    between atoms: _205  and  _207
REMARK   73  A    between atoms: _207  and  _208
REMARK   74  A    between atoms: _207  and  _210
REMARK   75  A    between atoms: _210  and  _211
REMARK   76  A    between atoms: _212  and  ZN_439
REMARK   77  A    between atoms: _216  and  _218
REMARK   78  A    between atoms: _218  and  _219
REMARK   79  A    between atoms: _218  and  _221
REMARK   80  A    between atoms: _221  and  _222
REMARK   81  A    between atoms: _225  and  _227
REMARK   82  A    between atoms: _227  and  _228
REMARK   83  A    between atoms: _227  and  _230
REMARK   84  A    between atoms: _233  and  _235
REMARK   85  A    between atoms: _235  and  _236
REMARK   86  A    between atoms: _235  and  _238
REMARK   87  A    between atoms: _238  and  _239
REMARK   88  A    between atoms: _244  and  _246
REMARK   89  A    between atoms: _246  and  _247
REMARK   90  A    between atoms: _246  and  _249
REMARK   91  A    between atoms: _249  and  _250
REMARK   92  A    between atoms: _256  and  _258
REMARK   93  A    between atoms: _258  and  _259
REMARK   94  A    between atoms: _261  and  _263
REMARK   95  A    between atoms: _263  and  _264
REMARK   96  A    between atoms: _263  and  _266
REMARK   97  A    between atoms: _269  and  _271
REMARK   98  A    between atoms: _271  and  _272
REMARK   99  A    between atoms: _271  and  _274
REMARK  100  A    between atoms: _274  and  _275
REMARK  101  A    between atoms: _275  and  _276
REMARK  102  A    between atoms: _281  and  _283
REMARK  103  A    between atoms: _283  and  _284
REMARK  104  A    between atoms: _283  and  _286
REMARK  105  A    between atoms: _286  and  _287
REMARK  106  A    between atoms: _290  and  _292
REMARK  107  A    between atoms: _292  and  _293
REMARK  108  A    between atoms: _296  and  _298
REMARK  109  A    between atoms: _298  and  _299
REMARK  110  A    between atoms: _298  and  _301
REMARK  111  A    between atoms: _304  and  _306
REMARK  112  A    between atoms: _306  and  _307
REMARK  113  A    between atoms: _306  and  _309
REMARK  114  A    between atoms: _309  and  _310
REMARK  115  A    between atoms: _313  and  _315
REMARK  116  A    between atoms: _315  and  _316
REMARK  117  A    between atoms: _315  and  _318
REMARK  118  A    between atoms: _318  and  _319
REMARK  119  A    between atoms: _321  and  _323
REMARK  120  A    between atoms: _323  and  _324
REMARK  121  A    between atoms: _323  and  _326
REMARK  122  A    between atoms: _326  and  _327
REMARK  123  A    between atoms: _330  and  _332
REMARK  124  A    between atoms: _332  and  _333
REMARK  125  A    between atoms: _332  and  _335
REMARK  126  A    between atoms: _335  and  _336
REMARK  127  A    between atoms: _339  and  _341
REMARK  128  A    between atoms: _341  and  _342
REMARK  129  A    between atoms: _341  and  _344
REMARK  130  A    between atoms: _344  and  _345
REMARK  131  A    between atoms: _349  and  _350
REMARK  132  A    between atoms: _356  and  _357
REMARK  133  A    between atoms: _362  and  _364
REMARK  134  A    between atoms: _364  and  _365
REMARK  135  A    between atoms: _364  and  _367
REMARK  136  A    between atoms: _367  and  _368
REMARK  137  A    between atoms: _371  and  _373
REMARK  138  A    between atoms: _373  and  _374
REMARK  139  A    between atoms: _373  and  _376
REMARK  140  A    between atoms: _376  and  _377
REMARK  141  A    between atoms: _380  and  _382
REMARK  142  A    between atoms: _382  and  _383
REMARK  143  A    between atoms: _382  and  _385
REMARK  144  A    between atoms: _387  and  _389
REMARK  145  A    between atoms: _389  and  _390
REMARK  146  A    between atoms: _389  and  _392
REMARK  147  A    between atoms: _395  and  _397
REMARK  148  A    between atoms: _397  and  _398
REMARK  149  A    between atoms: _397  and  _400
REMARK  150  A    between atoms: _400  and  _401
REMARK  151  A    between atoms: _411  and  _413
REMARK  152  A    between atoms: _413  and  _414
REMARK  153  A    between atoms: _413  and  _416
REMARK  154  A    between atoms: _416  and  _417
REMARK  155  A    between atoms: _422  and  _424
REMARK  156  A    between atoms: _424  and  _425
REMARK  157  A    between atoms: _424  and  _427
REMARK  158  A    between atoms: _427  and  _428
REMARK  159  A    between atoms: _428  and  _429
REMARK  160  A    between atoms: _429  and  _430
REMARK                            x       y       z     vdW  Elec       q    Type
REMARK                         _______ _______ _______ _____ _____    ______ ____
ROOT
ATOM      1  CA  GLU A   1     -12.906   6.317   6.236  0.00  0.00    +0.134 C 
ENDROOT
BRANCH   1   2
ATOM      2  N   GLU A   1     -12.958   4.984   5.676  0.00  0.00    -0.239 NA
ATOM      3  H   GLU A   1     -13.002   4.884   4.642  0.00  0.00    +0.142 HD
ENDBRANCH   1   2
BRANCH   1   4
ATOM      4  C   GLU A   1     -14.242   7.057   6.133  0.00  0.00    +0.224 C 
ATOM      5  O   GLU A   1     -14.974   6.853   5.158  0.00  0.00    -0.287 OA
ENDBRANCH   1   4
BRANCH   1   6
ATOM      6  CB  GLU A   1     -11.852   7.165   5.506  0.00  0.00    +0.037 C 
BRANCH   6   7
ATOM      7  CG  GLU A   1     -10.456   6.608   5.729  0.00  0.00    +0.116 C 
BRANCH   7   8
ATOM      8  CD  GLU A   1      -9.455   7.254   4.779  0.00  0.00    +0.365 C 
ATOM      9  OE2 GLU A   1      -8.250   7.085   5.034  0.00  0.00    -0.246 OA
ATOM     10  OE1 GLU A   1      -9.927   7.886   3.811  0.00  0.00    -0.246 OA
ENDBRANCH   7   8
ENDBRANCH   6   7
ENDBRANCH   1   6
TORSDOF 5
REMARK  Name = ../refined-set-2016/3dbu/3dbu_pocket.pdb
REMARK  160 active torsions:
REMARK  status: ('A' for Active; 'I' for Inactive)
REMARK    1  A    between atoms: _1  and  _3
REMARK    2  A    between atoms: _3  and  _4
REMARK    3  A    between atoms: _3  and  _6
REMARK    4  A    between atoms: _6  and  _7
REMARK    5  A    between atoms: _17  and  _19
REMARK    6  A    between atoms: _19  and  _20
REMARK    7  A    between atoms: _19  and  _22
REMARK    8  A    between atoms: _22  and  _23
REMARK    9  A    between atoms: _28  and  _29
REMARK   10  A    between atoms: _31  and  _33
REMARK   11  A    between atoms: _33  and  _34
REMARK   12  A    between atoms: _33  and  _36
REMARK   13  A    between atoms: _36  and  _37
REMARK   14  A    between atoms: _40  and  _41
REMARK   15  A    between atoms: _46  and  _48
REMARK   16  A    between atoms: _48  and  _49
REMARK   17  A    between atoms: _48  and  _51
REMARK   18  A    between atoms: _51  and  _52
REMARK   19  A    between atoms: _57  and  _59
REMARK   20  A    between atoms: _59  and  _60
REMARK   21  A    between atoms: _59  and  _62
REMARK   22  A    between atoms: _62  and  _63
REMARK   23  A    between atoms: _68  and  _70
REMARK   24  A    between atoms: _70  and  _71
REMARK   25  A    between atoms: _70  and  _73
REMARK   26  A    between atoms: _73  and  _74
REMARK   27  A    between atoms: _76  and  _78
REMARK   28  A    between atoms: _78  and  _79
REMARK   29  A    between atoms: _78  and  _81
REMARK   30  A    between atoms: _81  and  _82
REMARK   31  A    between atoms: _82  and  _83
REMARK   32  A    between atoms: _88  and  _90
REMARK   33  A    between atoms: _90  and  _91
REMARK   34  A    between atoms: _90  and  _93
REMARK   35  A    between atoms: _93  and  _94
REMARK   36  A    between atoms: _94  and  _95
REMARK   37  A    between atoms: _98  and  _100
REMARK   38  A    between atoms: _100  and  _101
REMARK   39  A    between atoms: _100  and  _103
REMARK   40  A    between atoms: _103  and  _104
REMARK   41  A    between atoms: _107  and  _109
REMARK   42  A    between atoms: _109  and  _110
REMARK   43  A    between atoms: _109  and  _112
REMARK   44  A    between atoms: _112  and  _113
REMARK   45  A    between atoms: _113  and  _114
REMARK   46  A    between atoms: _119  and  _121
REMARK   47  A    between atoms: _121  and  _122
REMARK   48  A    between atoms: _121  and  _124
REMARK   49  A    between atoms: _124  and  _125
REMARK   50  A    between atoms: _131  and  _133
REMARK   51  A    between atoms: _144  and  _147
REMARK   52  A    between atoms: _147  and  _148
REMARK   53  A    between atoms: _156  and  _157
REMARK   54  A    between atoms: _165  and  _167
REMARK   55  A    between atoms: _167  and  _168
REMARK   56  A    between atoms: _167  and  _170
REMARK   57  A    between atoms: _170  and  _171
REMARK   58  A    between atoms: _171  and  _172
REMARK   59  A    between atoms: _175  and  _177
REMARK   60  A    between atoms: _177  and  _178
REMARK   61  A    between atoms: _177  and  _180
REMARK   62  A    between atoms: _180  and  _181
REMARK   63  A    between atoms: _186  and  _188
REMARK   64  A    between atoms: _188  and  _189
REMARK   65  A    between atoms: _188  and  _191
REMARK   66  A    between atoms: _191  and  _192
REMARK   67  A    between atoms: _192  and  _193
REMARK   68  A    between atoms: _196  and  _198
REMARK   69  A    between atoms: _198  and  _199
REMARK   70  A    between atoms: _198  and  _201
REMARK   71  A    between atoms: _201  and  _202
REMARK   72  A    between atoms: _205  and  _207
REMARK   73  A    between atoms: _207  and  _208
REMARK   74  A    between atoms: _207  and  _210
REMARK   75  A    between atoms: _210  and  _211
REMARK   76  A    between atoms: _212  and  ZN_439
REMARK   77  A    between atoms: _216  and  _218
REMARK   78  A    between atoms: _218  and  _219
REMARK   79  A    between atoms: _218  and  _221
REMARK   80  A    between atoms: _221  and  _222
REMARK   81  A    between atoms: _225  and  _227
REMARK   82  A    between atoms: _227  and  _228
REMARK   83  A    between atoms: _227  and  _230
REMARK   84  A    between atoms: _233  and  _235
REMARK   85  A    between atoms: _235  and  _236
REMARK   86  A    between atoms: _235  and  _238
REMARK   87  A    between atoms: _238  and  _239
REMARK   88  A    between atoms: _244  and  _246
REMARK   89  A    between atoms: _246  and  _247
REMARK   90  A    between atoms: _246  and  _249
REMARK   91  A    between atoms: _249  and  _250
REMARK   92  A    between atoms: _256  and  _258
REMARK   93  A    between atoms: _258  and  _259
REMARK   94  A    between atoms: _261  and  _263
REMARK   95  A    between atoms: _263  and  _264
REMARK   96  A    between atoms: _263  and  _266
REMARK   97  A    between atoms: _269  and  _271
REMARK   98  A    between atoms: _271  and  _272
REMARK   99  A    between atoms: _271  and  _274
REMARK  100  A    between atoms: _274  and  _275
REMARK  101  A    between atoms: _275  and  _276
REMARK  102  A    between atoms: _281  and  _283
REMARK  103  A    between atoms: _283  and  _284
REMARK  104  A    between atoms: _283  and  _286
REMARK  105  A    between atoms: _286  and  _287
REMARK  106  A    between atoms: _290  and  _292
REMARK  107  A    between atoms: _292  and  _293
REMARK  108  A    between atoms: _296  and  _298
REMARK  109  A    between atoms: _298  and  _299
REMARK  110  A    between atoms: _298  and  _301
REMARK  111  A    between atoms: _304  and  _306
REMARK  112  A    between atoms: _306  and  _307
REMARK  113  A    between atoms: _306  and  _309
REMARK  114  A    between atoms: _309  and  _310
REMARK  115  A    between atoms: _313  and  _315
REMARK  116  A    between atoms: _315  and  _316
REMARK  117  A    between atoms: _315  and  _318
REMARK  118  A    between atoms: _318  and  _319
REMARK  119  A    between atoms: _321  and  _323
REMARK  120  A    between atoms: _323  and  _324
REMARK  121  A    between atoms: _323  and  _326
REMARK  122  A    between atoms: _326  and  _327
REMARK  123  A    between atoms: _330  and  _332
REMARK  124  A    between atoms: _332  and  _333
REMARK  125  A    between atoms: _332  and  _335
REMARK  126  A    between atoms: _335  and  _336
REMARK  127  A    between atoms: _339  and  _341
REMARK  128  A    between atoms: _341  and  _342
REMARK  129  A    between atoms: _341  and  _344
REMARK  130  A    between atoms: _344  and  _345
REMARK  131  A    between atoms: _349  and  _350
REMARK  132  A    between atoms: _356  and  _357
REMARK  133  A    between atoms: _362  and  _364
REMARK  134  A    between atoms: _364  and  _365
REMARK  135  A    between atoms: _364  and  _367
REMARK  136  A    between atoms: _367  and  _368
REMARK  137  A    between atoms: _371  and  _373
REMARK  138  A    between atoms: _373  and  _374
REMARK  139  A    between atoms: _373  and  _376
REMARK  140  A    between atoms: _376  and  _377
REMARK  141  A    between atoms: _380  and  _382
REMARK  142  A    between atoms: _382  and  _383
REMARK  143  A    between atoms: _382  and  _385
REMARK  144  A    between atoms: _387  and  _389
REMARK  145  A    between atoms: _389  and  _390
REMARK  146  A    between atoms: _389  and  _392
REMARK  147  A    between atoms: _395  and  _397
REMARK  148  A    between atoms: _397  and  _398
REMARK  149  A    between atoms: _397  and  _400
REMARK  150  A    between atoms: _400  and  _401
REMARK  151  A    between atoms: _411  and  _413
REMARK  152  A    between atoms: _413  and  _414
REMARK  153  A    between atoms: _413  and  _416
REMARK  154  A    between atoms: _416  and  _417
REMARK  155  A    between atoms: _422  and  _424
REMARK  156  A    between atoms: _424  and  _425
REMARK  157  A    between atoms: _424  and  _427
REMARK  158  A    between atoms: _427  and  _428
REMARK  159  A    between atoms: _428  and  _429
REMARK  160  A    between atoms: _429  and  _430
REMARK                            x       y       z     vdW  Elec       q    Type
REMARK                         _______ _______ _______ _____ _____    ______ ____
ROOT
ATOM      1  C   UNK A   4     -10.272  -1.269  10.296  0.00  0.00    +0.000 C 
ATOM      2  C   UNK A   4     -10.334  -2.600  11.037  0.00  0.00    +0.000 C 
ATOM      3  O   UNK A   4     -11.030  -2.691  12.041  0.00  0.00    +0.000 OA
ATOM      4  N   VAL A   5      -9.595  -3.581  10.550  0.00  0.00    +0.000 N 
ATOM      5  CA  VAL A   5      -9.599  -4.903  11.143  0.00  0.00    +0.000 C 
ATOM      6  C   VAL A   5      -8.187  -5.406  11.429  0.00  0.00    +0.000 C 
ATOM      7  N   UNK A   6      -8.085  -6.364  12.344  0.00  0.00    +0.000 N 
ATOM      8  H   UNK A   6      -8.905  -6.556  12.955  0.00  0.00    +0.000 HD
ATOM      9  C   UNK A   6      -6.870  -7.163  12.532  0.00  0.00    +0.000 C 
ATOM     10  C   UNK A   6      -6.279  -6.951  13.926  0.00  0.00    +0.000 C 
ATOM     11  C   UNK A   6      -5.970  -5.501  14.204  0.00  0.00    +0.000 A 
ATOM     12  C   UNK A   6      -6.788  -4.492  14.632  0.00  0.00    +0.000 A 
ATOM     13  N   UNK A   6      -6.001  -3.369  14.699  0.00  0.00    +0.000 N 
ATOM     14 ZN   UNK A   6      -6.774  -1.603  15.362  0.00  0.00    +0.000 Zn
ATOM     15  N   UNK A   4      -7.498  -0.676  13.721  0.00  0.00    +0.000 N 
ATOM     16  C   UNK A   4      -8.030   0.542  13.623  0.00  0.00    +0.000 A 
ATOM     17  N   UNK A   4      -8.551   0.676  12.407  0.00  0.00    +0.000 NA
ATOM     18  C   UNK A   4      -8.354  -0.492  11.694  0.00  0.00    +0.000 A 
ATOM     19  C   UNK A   4      -7.699  -1.338  12.539  0.00  0.00    +0.000 A 
ATOM     20  C   UNK A   6      -4.761  -3.673  14.334  0.00  0.00    +0.000 A 
ATOM     21  N   UNK A   6      -4.713  -4.975  14.013  0.00  0.00    +0.000 NA
ATOM     22  O   VAL A   5      -7.233  -4.955  10.820  0.00  0.00    +0.000 OA
ATOM     23  H   VAL A   5      -8.995  -3.400   9.720  0.00  0.00    +0.000 HD
ATOM     24  C   UNK A   4      -8.854  -0.677  10.283  0.00  0.00    +0.000 C 
ENDROOT
BRANCH  14  25
ATOM     25  N   UNK A   6      -8.247  -2.310  16.615  0.00  0.00    +0.000 N 
ATOM     26  C   UNK A   6      -7.963  -3.242  17.511  0.00  0.00    +0.000 A 
ATOM     27  N   UNK A   6      -9.101  -3.636  18.089  0.00  0.00    +0.000 NA
ATOM     28  C   UNK A   6     -10.140  -2.922  17.543  0.00  0.00    +0.000 A 
ATOM     29  C   UNK A   6      -9.598  -2.087  16.613  0.00  0.00    +0.000 A 
BRANCH  29  30
ATOM     30  C   UNK A   6     -10.305  -1.098  15.745  0.00  0.00    +0.000 C 
BRANCH  30  31
ATOM     31  C   UNK A   6     -11.809  -1.382  15.602  0.00  0.00    +0.000 C 
BRANCH  31  32
ATOM     32  C   UNK A   6     -12.491  -0.185  14.950  0.00  0.00    +0.000 C 
ATOM     33  N   UNK A   4     -13.422   0.413  15.671  0.00  0.00    +0.000 N 
ATOM     34  H   UNK A   4     -13.725  -0.004  16.574  0.00  0.00    +0.000 HD
ATOM     35  O   UNK A   6     -12.132   0.125  13.809  0.00  0.00    +0.000 OA
BRANCH  33  36
ATOM     36  C   UNK A   4     -14.035   1.672  15.199  0.00  0.00    +0.000 C 
BRANCH  36  37
ATOM     37  C   UNK A   4     -13.446   2.836  15.977  0.00  0.00    +0.000 C 
ATOM     38  O   UNK A   4     -13.652   2.880  17.197  0.00  0.00    +0.000 OA
ATOM     39  N   VAL A   5     -12.707   3.686  15.276  0.00  0.00    +0.000 N 
ATOM     40  H   VAL A   5     -12.706   3.625  14.238  0.00  0.00    +0.000 HD
BRANCH  39  41
ATOM     41  CA  VAL A   5     -11.897   4.704  15.933  0.00  0.00    +0.000 C 
BRANCH  41  42
ATOM     42  C   VAL A   5     -12.646   6.033  15.980  0.00  0.00    +0.000 C 
ATOM     43  N   UNK A   6     -12.744   6.670  17.135  0.00  0.00    +0.000 N 
ATOM     44  H   UNK A   6     -12.296   6.247  17.973  0.00  0.00    +0.000 HD
ATOM     45  O   VAL A   5     -13.125   6.463  14.927  0.00  0.00    +0.000 OA
BRANCH  43  46
ATOM     46  C   UNK A   6     -13.445   7.928  17.288  0.00  0.00    +0.000 C 
BRANCH  46  47
ATOM     47  C   UNK A   6     -12.574   8.930  18.057  0.00  0.00    +0.000 C 
ATOM     48  O   UNK A   6     -11.750   8.517  18.885  0.00  0.00    +0.000 OA
ENDBRANCH  46  47
BRANCH  46  49
ATOM     49  C   UNK A   6     -14.747   7.781  18.073  0.00  0.00    +0.000 C 
BRANCH  49  50
ATOM     50  C   UNK A   6     -15.631   6.649  17.701  0.00  0.00    +0.000 A 
ATOM     51  N   UNK A   6     -15.296   5.330  17.876  0.00  0.00    +0.000 NA
ATOM     52  C   UNK A   6     -16.294   4.566  17.467  0.00  0.00    +0.000 A 
ATOM     53  N   UNK A   6     -17.288   5.349  17.035  0.00  0.00    +0.000 NA
ATOM     54  C   UNK A   6     -16.889   6.655  17.178  0.00  0.00    +0.000 A 
ENDBRANCH  49  50
ENDBRANCH  46  49
ENDBRANCH  43  46
ENDBRANCH  41  42
BRANCH  41  55
ATOM     55  CB  VAL A   5     -10.574   4.897  15.171  0.00  0.00    +0.000 C 
ATOM     56  CG2 VAL A   5      -9.652   5.943  15.807  0.00  0.00    +0.000 C 
ATOM     57  CG1 VAL A   5      -9.842   3.570  15.043  0.00  0.00    +0.000 C 
ENDBRANCH  41  55
ENDBRANCH  39  41
ENDBRANCH  36  37
BRANCH  36  58
ATOM     58  C   UNK A   4     -15.540   1.613  15.377  0.00  0.00    +0.000 C 
BRANCH  58  59
ATOM     59  C   UNK A   4     -16.232   0.535  14.521  0.00  0.00    +0.000 C 
ATOM     60  C   UNK A   4     -16.949  -0.482  15.375  0.00  0.00    +0.000 C 
ATOM     61  C   UNK A   4     -17.211   1.202  13.553  0.00  0.00    +0.000 C 
ENDBRANCH  58  59
ENDBRANCH  36  58
ENDBRANCH  33  36
ENDBRANCH  31  32
BRANCH  31  62
ATOM     62  N   UNK A   6     -12.030  -2.578  14.787  0.00  0.00    +0.000 N 
ATOM     63  C   LEU A   2     -12.681  -3.636  15.269  0.00  0.00    +0.000 C 
ATOM     64  O   LEU A   2     -13.144  -3.723  16.409  0.00  0.00    +0.000 OA
ATOM     65  H   UNK A   6     -11.671  -2.602  13.811  0.00  0.00    +0.000 HD
BRANCH  63  66
ATOM     66  CA  LEU A   2     -12.867  -4.818  14.329  0.00  0.00    +0.000 C 
BRANCH  66  67
ATOM     67  N   LEU A   2     -12.473  -6.068  14.979  0.00  0.00    +0.000 N 
ATOM     68  H   LEU A   2     -13.156  -6.548  15.599  0.00  0.00    +0.000 HD
ATOM     69  C   GLU A   1     -11.282  -6.608  14.807  0.00  0.00    +0.000 C 
ATOM     70  O   GLU A   1     -10.390  -6.234  14.058  0.00  0.00    +0.000 OA
BRANCH  69  71
ATOM     71  CA  GLU A   1     -11.047  -7.874  15.649  0.00  0.00    +0.000 C 
BRANCH  71  72
ATOM     72  N   GLU A   1     -10.542  -8.915  14.743  0.00  0.00    +0.000 NA
ATOM     73  H   GLU A   1      -9.892  -8.671  13.968  0.00  0.00    +0.000 HD
ENDBRANCH  71  72
BRANCH  71  74
ATOM     74  CB  GLU A   1     -10.119  -7.586  16.825  0.00  0.00    +0.000 C 
BRANCH  74  75
ATOM     75  CG  GLU A   1     -10.695  -6.692  17.927  0.00  0.00    +0.000 C 
BRANCH  75  76
ATOM     76  CD  GLU A   1      -9.758  -6.624  19.127  0.00  0.00    +0.000 C 
ATOM     77  OE2 GLU A   1      -9.648  -5.577  19.771  0.00  0.00    +0.000 OA
ATOM     78  OE1 GLU A   1      -9.105  -7.641  19.436  0.00  0.00    +0.000 OA
ENDBRANCH  75  76
ENDBRANCH  74  75
ENDBRANCH  71  74
ENDBRANCH  69  71
ENDBRANCH  66  67
BRANCH  66  79
ATOM     79  CB  LEU A   2     -14.329  -4.996  13.927  0.00  0.00    +0.000 C 
BRANCH  79  80
ATOM     80  CG  LEU A   2     -15.142  -3.745  13.577  0.00  0.00    +0.000 C 
ATOM     81  CD2 LEU A   2     -16.592  -4.137  13.302  0.00  0.00    +0.000 C 
ATOM     82  CD1 LEU A   2     -14.519  -3.044  12.385  0.00  0.00    +0.000 C 
ENDBRANCH  79  80
ENDBRANCH  66  79
ENDBRANCH  63  66
ENDBRANCH  31  62
ENDBRANCH  30  31
ENDBRANCH  29  30
ENDBRANCH  14  25
BRANCH   1  84
ATOM     83  C   UNK A   3     -11.772   0.653  10.294  0.00  0.00    +0.000 C 
ATOM     84  N   UNK A   4     -11.212  -0.362  10.949  0.00  0.00    +0.000 N 
ATOM     85  H   UNK A   4     -11.450  -0.513  11.950  0.00  0.00    +0.000 HD
ATOM     86  O   UNK A   3     -11.551   0.830   9.090  0.00  0.00    +0.000 OA
BRANCH  83  87
ATOM     87  C   UNK A   3     -12.751   1.500  11.102  0.00  0.00    +0.000 C 
BRANCH  87  90
ATOM     88  C   LEU A   2     -12.685   3.923  11.198  0.00  0.00    +0.000 C 
ATOM     89  O   LEU A   2     -12.730   3.939  12.421  0.00  0.00    +0.000 OA
ATOM     90  N   UNK A   3     -12.858   2.821  10.463  0.00  0.00    +0.000 N 
ATOM     91  H   UNK A   3     -13.067   2.896   9.447  0.00  0.00    +0.000 HD
BRANCH  88  92
ATOM     92  CA  LEU A   2     -12.410   5.229  10.435  0.00  0.00    +0.000 C 
BRANCH  92  94
ATOM     93  C   GLU A   1     -12.934   7.587  10.717  0.00  0.00    +0.000 C 
ATOM     94  N   LEU A   2     -12.726   6.382  11.283  0.00  0.00    +0.000 N 
ATOM     95  H   LEU A   2     -12.789   6.271  12.315  0.00  0.00    +0.000 HD
ATOM     96  O   GLU A   1     -12.852   7.730   9.493  0.00  0.00    +0.000 OA
BRANCH  93  97
ATOM     97  CA  GLU A   1     -13.264   8.757  11.634  0.00  0.00    +0.000 C 
BRANCH  97  98
ATOM     98  CB  GLU A   1     -11.998   9.466  12.142  0.00  0.00    +0.000 C 
ATOM     99  CG2 GLU A   1     -11.249   8.678  13.214  0.00  0.00    +0.000 C 
BRANCH  98 100
ATOM    100  CG1 GLU A   1     -11.045   9.834  10.993  0.00  0.00    +0.000 C 
ATOM    101  CD1 GLU A   1      -9.988  10.827  11.438  0.00  0.00    +0.000 C 
ENDBRANCH  98 100
ENDBRANCH  97  98
BRANCH  97 102
ATOM    102  N   GLU A   1     -14.076   8.302  12.759  0.00  0.00    +0.000 NA
ATOM    103  H   GLU A   1     -13.692   7.622  13.445  0.00  0.00    +0.000 HD
ENDBRANCH  97 102
ENDBRANCH  93  97
ENDBRANCH  92  94
BRANCH  92 104
ATOM    104  CB  LEU A   2     -10.955   5.237   9.938  0.00  0.00    +0.000 C 
BRANCH 104 105
ATOM    105  CG  LEU A   2      -9.900   5.288  11.041  0.00  0.00    +0.000 C 
BRANCH 105 106
ATOM    106  CD  LEU A   2      -9.030   4.047  11.098  0.00  0.00    +0.000 C 
ATOM    107  NE2 LEU A   2      -9.668   2.897  11.140  0.00  0.00    +0.000 N 
ATOM    108 HE21 LEU A   2      -9.132   2.006  11.180  0.00  0.00    +0.000 HD
ATOM    109 HE22 LEU A   2     -10.708   2.879  11.134  0.00  0.00    +0.000 HD
ATOM    110  OE1 LEU A   2      -7.801   4.110  11.104  0.00  0.00    +0.000 OA
ENDBRANCH 105 106
ENDBRANCH 104 105
ENDBRANCH  92 104
ENDBRANCH  88  92
ENDBRANCH  87  90
BRANCH  87 111
ATOM    111  C   UNK A   3     -14.101   0.797  11.288  0.00  0.00    +0.000 C 
BRANCH 111 112
ATOM    112  C   UNK A   3     -14.856   0.305  10.059  0.00  0.00    +0.000 A 
ATOM    113  C   UNK A   3     -15.954   1.043   9.624  0.00  0.00    +0.000 A 
ATOM    114  C   UNK A   3     -16.707   0.627   8.521  0.00  0.00    +0.000 A 
ATOM    115  C   UNK A   3     -16.340  -0.513   7.834  0.00  0.00    +0.000 A 
ATOM    116  C   UNK A   3     -15.239  -1.262   8.228  0.00  0.00    +0.000 A 
ATOM    117  C   UNK A   3     -14.526  -0.831   9.337  0.00  0.00    +0.000 A 
ENDBRANCH 111 112
ENDBRANCH  87 111
ENDBRANCH  83  87
ENDBRANCH   1  84
BRANCH   9 118
ATOM    118  C   UNK A   6      -7.267  -8.621  12.337  0.00  0.00    +0.000 C 
ATOM    119  O   UNK A   6      -8.371  -8.987  12.799  0.00  0.00    +0.000 OA
ENDBRANCH   9 118
BRANCH   5 120
ATOM    120  CB  VAL A   5     -10.266  -5.945  10.224  0.00  0.00    +0.000 C 
BRANCH 120 121
ATOM    121  CG  VAL A   5     -11.746  -5.708   9.957  0.00  0.00    +0.000 A 
ATOM    122  CD2 VAL A   5     -12.711  -6.395  10.679  0.00  0.00    +0.000 A 
ATOM    123  CE2 VAL A   5     -14.051  -6.190  10.391  0.00  0.00    +0.000 A 
ATOM    124  CZ  VAL A   5     -14.416  -5.300   9.392  0.00  0.00    +0.000 A 
ATOM    125  CE1 VAL A   5     -13.456  -4.602   8.694  0.00  0.00    +0.000 A 
ATOM    126  CD1 VAL A   5     -12.106  -4.799   8.969  0.00  0.00    +0.000 A 
ENDBRANCH 120 121
ENDBRANCH   5 120
TORSDOF 42
REMARK  Name = ../refined-set-2016/3dbu/3dbu_pocket.pdb
REMARK  160 active torsions:
REMARK  status: ('A' for Active; 'I' for Inactive)
REMARK    1  A    between atoms: _1  and  _3
REMARK    2  A    between atoms: _3  and  _4
REMARK    3  A    between atoms: _3  and  _6
REMARK    4  A    between atoms: _6  and  _7
REMARK    5  A    between atoms: _17  and  _19
REMARK    6  A    between atoms: _19  and  _20
REMARK    7  A    between atoms: _19  and  _22
REMARK    8  A    between atoms: _22  and  _23
REMARK    9  A    between atoms: _28  and  _29
REMARK   10  A    between atoms: _31  and  _33
REMARK   11  A    between atoms: _33  and  _34
REMARK   12  A    between atoms: _33  and  _36
REMARK   13  A    between atoms: _36  and  _37
REMARK   14  A    between atoms: _40  and  _41
REMARK   15  A    between atoms: _46  and  _48
REMARK   16  A    between atoms: _48  and  _49
REMARK   17  A    between atoms: _48  and  _51
REMARK   18  A    between atoms: _51  and  _52
REMARK   19  A    between atoms: _57  and  _59
REMARK   20  A    between atoms: _59  and  _60
REMARK   21  A    between atoms: _59  and  _62
REMARK   22  A    between atoms: _62  and  _63
REMARK   23  A    between atoms: _68  and  _70
REMARK   24  A    between atoms: _70  and  _71
REMARK   25  A    between atoms: _70  and  _73
REMARK   26  A    between atoms: _73  and  _74
REMARK   27  A    between atoms: _76  and  _78
REMARK   28  A    between atoms: _78  and  _79
REMARK   29  A    between atoms: _78  and  _81
REMARK   30  A    between atoms: _81  and  _82
REMARK   31  A    between atoms: _82  and  _83
REMARK   32  A    between atoms: _88  and  _90
REMARK   33  A    between atoms: _90  and  _91
REMARK   34  A    between atoms: _90  and  _93
REMARK   35  A    between atoms: _93  and  _94
REMARK   36  A    between atoms: _94  and  _95
REMARK   37  A    between atoms: _98  and  _100
REMARK   38  A    between atoms: _100  and  _101
REMARK   39  A    between atoms: _100  and  _103
REMARK   40  A    between atoms: _103  and  _104
REMARK   41  A    between atoms: _107  and  _109
REMARK   42  A    between atoms: _109  and  _110
REMARK   43  A    between atoms: _109  and  _112
REMARK   44  A    between atoms: _112  and  _113
REMARK   45  A    between atoms: _113  and  _114
REMARK   46  A    between atoms: _119  and  _121
REMARK   47  A    between atoms: _121  and  _122
REMARK   48  A    between atoms: _121  and  _124
REMARK   49  A    between atoms: _124  and  _125
REMARK   50  A    between atoms: _131  and  _133
REMARK   51  A    between atoms: _144  and  _147
REMARK   52  A    between atoms: _147  and  _148
REMARK   53  A    between atoms: _156  and  _157
REMARK   54  A    between atoms: _165  and  _167
REMARK   55  A    between atoms: _167  and  _168
REMARK   56  A    between atoms: _167  and  _170
REMARK   57  A    between atoms: _170  and  _171
REMARK   58  A    between atoms: _171  and  _172
REMARK   59  A    between atoms: _175  and  _177
REMARK   60  A    between atoms: _177  and  _178
REMARK   61  A    between atoms: _177  and  _180
REMARK   62  A    between atoms: _180  and  _181
REMARK   63  A    between atoms: _186  and  _188
REMARK   64  A    between atoms: _188  and  _189
REMARK   65  A    between atoms: _188  and  _191
REMARK   66  A    between atoms: _191  and  _192
REMARK   67  A    between atoms: _192  and  _193
REMARK   68  A    between atoms: _196  and  _198
REMARK   69  A    between atoms: _198  and  _199
REMARK   70  A    between atoms: _198  and  _201
REMARK   71  A    between atoms: _201  and  _202
REMARK   72  A    between atoms: _205  and  _207
REMARK   73  A    between atoms: _207  and  _208
REMARK   74  A    between atoms: _207  and  _210
REMARK   75  A    between atoms: _210  and  _211
REMARK   76  A    between atoms: _212  and  ZN_439
REMARK   77  A    between atoms: _216  and  _218
REMARK   78  A    between atoms: _218  and  _219
REMARK   79  A    between atoms: _218  and  _221
REMARK   80  A    between atoms: _221  and  _222
REMARK   81  A    between atoms: _225  and  _227
REMARK   82  A    between atoms: _227  and  _228
REMARK   83  A    between atoms: _227  and  _230
REMARK   84  A    between atoms: _233  and  _235
REMARK   85  A    between atoms: _235  and  _236
REMARK   86  A    between atoms: _235  and  _238
REMARK   87  A    between atoms: _238  and  _239
REMARK   88  A    between atoms: _244  and  _246
REMARK   89  A    between atoms: _246  and  _247
REMARK   90  A    between atoms: _246  and  _249
REMARK   91  A    between atoms: _249  and  _250
REMARK   92  A    between atoms: _256  and  _258
REMARK   93  A    between atoms: _258  and  _259
REMARK   94  A    between atoms: _261  and  _263
REMARK   95  A    between atoms: _263  and  _264
REMARK   96  A    between atoms: _263  and  _266
REMARK   97  A    between atoms: _269  and  _271
REMARK   98  A    between atoms: _271  and  _272
REMARK   99  A    between atoms: _271  and  _274
REMARK  100  A    between atoms: _274  and  _275
REMARK  101  A    between atoms: _275  and  _276
REMARK  102  A    between atoms: _281  and  _283
REMARK  103  A    between atoms: _283  and  _284
REMARK  104  A    between atoms: _283  and  _286
REMARK  105  A    between atoms: _286  and  _287
REMARK  106  A    between atoms: _290  and  _292
REMARK  107  A    between atoms: _292  and  _293
REMARK  108  A    between atoms: _296  and  _298
REMARK  109  A    between atoms: _298  and  _299
REMARK  110  A    between atoms: _298  and  _301
REMARK  111  A    between atoms: _304  and  _306
REMARK  112  A    between atoms: _306  and  _307
REMARK  113  A    between atoms: _306  and  _309
REMARK  114  A    between atoms: _309  and  _310
REMARK  115  A    between atoms: _313  and  _315
REMARK  116  A    between atoms: _315  and  _316
REMARK  117  A    between atoms: _315  and  _318
REMARK  118  A    between atoms: _318  and  _319
REMARK  119  A    between atoms: _321  and  _323
REMARK  120  A    between atoms: _323  and  _324
REMARK  121  A    between atoms: _323  and  _326
REMARK  122  A    between atoms: _326  and  _327
REMARK  123  A    between atoms: _330  and  _332
REMARK  124  A    between atoms: _332  and  _333
REMARK  125  A    between atoms: _332  and  _335
REMARK  126  A    between atoms: _335  and  _336
REMARK  127  A    between atoms: _339  and  _341
REMARK  128  A    between atoms: _341  and  _342
REMARK  129  A    between atoms: _341  and  _344
REMARK  130  A    between atoms: _344  and  _345
REMARK  131  A    between atoms: _349  and  _350
REMARK  132  A    between atoms: _356  and  _357
REMARK  133  A    between atoms: _362  and  _364
REMARK  134  A    between atoms: _364  and  _365
REMARK  135  A    between atoms: _364  and  _367
REMARK  136  A    between atoms: _367  and  _368
REMARK  137  A    between atoms: _371  and  _373
REMARK  138  A    between atoms: _373  and  _374
REMARK  139  A    between atoms: _373  and  _376
REMARK  140  A    between atoms: _376  and  _377
REMARK  141  A    between atoms: _380  and  _382
REMARK  142  A    between atoms: _382  and  _383
REMARK  143  A    between atoms: _382  and  _385
REMARK  144  A    between atoms: _387  and  _389
REMARK  145  A    between atoms: _389  and  _390
REMARK  146  A    between atoms: _389  and  _392
REMARK  147  A    between atoms: _395  and  _397
REMARK  148  A    between atoms: _397  and  _398
REMARK  149  A    between atoms: _397  and  _400
REMARK  150  A    between atoms: _400  and  _401
REMARK  151  A    between atoms: _411  and  _413
REMARK  152  A    between atoms: _413  and  _414
REMARK  153  A    between atoms: _413  and  _416
REMARK  154  A    between atoms: _416  and  _417
REMARK  155  A    between atoms: _422  and  _424
REMARK  156  A    between atoms: _424  and  _425
REMARK  157  A    between atoms: _424  and  _427
REMARK  158  A    between atoms: _427  and  _428
REMARK  159  A    between atoms: _428  and  _429
REMARK  160  A    between atoms: _429  and  _430
REMARK                            x       y       z     vdW  Elec       q    Type
REMARK                         _______ _______ _______ _____ _____    ______ ____
ROOT
ATOM      1  C   GLU A   1      -5.994  -8.497  21.029  0.00  0.00    +0.238 C 
ATOM      2  O   GLU A   1      -5.188  -9.038  21.779  0.00  0.00    -0.274 OA
ATOM      3  N   HIS A   2      -7.204  -8.067  21.418  0.00  0.00    -0.298 N 
ATOM      4  H   HIS A   2      -7.823  -7.533  20.775  0.00  0.00    +0.150 HD
ENDROOT
BRANCH   1   5
ATOM      5  CA  GLU A   1      -5.687  -8.306  19.545  0.00  0.00    +0.145 C 
BRANCH   5   6
ATOM      6  N   GLU A   1      -6.741  -8.963  18.760  0.00  0.00    -0.238 NA
ATOM      7  H   GLU A   1      -7.617  -8.446  18.543  0.00  0.00    +0.142 HD
ENDBRANCH   5   6
BRANCH   5   8
ATOM      8  CB  GLU A   1      -5.623  -6.815  19.213  0.00  0.00    +0.038 C 
BRANCH   8   9
ATOM      9  CG  GLU A   1      -5.282  -6.645  17.722  0.00  0.00    +0.116 C 
BRANCH   9  10
ATOM     10  CD  GLU A   1      -4.476  -5.373  17.500  0.00  0.00    +0.365 C 
ATOM     11  OE2 GLU A   1      -5.023  -4.270  17.708  0.00  0.00    -0.246 OA
ATOM     12  OE1 GLU A   1      -3.288  -5.450  17.131  0.00  0.00    -0.246 OA
ENDBRANCH   9  10
ENDBRANCH   8   9
ENDBRANCH   5   8
ENDBRANCH   1   5
BRANCH   3  13
ATOM     13  CA  HIS A   2      -7.615  -8.384  22.791  0.00  0.00    +0.143 C 
BRANCH  13  14
ATOM     14  C   HIS A   2      -7.878  -9.886  22.879  0.00  0.00    +0.227 C 
ATOM     15  O   HIS A   2      -8.194 -10.474  21.847  0.00  0.00    -0.286 OA
ENDBRANCH  13  14
BRANCH  13  16
ATOM     16  CB  HIS A   2      -8.851  -7.589  23.216  0.00  0.00    +0.075 C 
BRANCH  16  17
ATOM     17  CG  HIS A   2      -8.489  -6.142  23.395  0.00  0.00    +0.082 A 
ATOM     18  CD2 HIS A   2      -8.020  -5.428  24.440  0.00  0.00    +0.115 A 
ATOM     19  NE2 HIS A   2      -7.845  -4.119  24.044  0.00  0.00    -0.221 NA
ATOM     20  CE1 HIS A   2      -8.184  -4.045  22.760  0.00  0.00    +0.199 A 
ATOM     21  ND1 HIS A   2      -8.577  -5.248  22.337  0.00  0.00    -0.227 NA
ENDBRANCH  16  17
ENDBRANCH  13  16
ENDBRANCH   3  13
TORSDOF 9
REMARK  Name = ../refined-set-2016/3dbu/3dbu_pocket.pdb
REMARK  160 active torsions:
REMARK  status: ('A' for Active; 'I' for Inactive)
REMARK    1  A    between atoms: _1  and  _3
REMARK    2  A    between atoms: _3  and  _4
REMARK    3  A    between atoms: _3  and  _6
REMARK    4  A    between atoms: _6  and  _7
REMARK    5  A    between atoms: _17  and  _19
REMARK    6  A    between atoms: _19  and  _20
REMARK    7  A    between atoms: _19  and  _22
REMARK    8  A    between atoms: _22  and  _23
REMARK    9  A    between atoms: _28  and  _29
REMARK   10  A    between atoms: _31  and  _33
REMARK   11  A    between atoms: _33  and  _34
REMARK   12  A    between atoms: _33  and  _36
REMARK   13  A    between atoms: _36  and  _37
REMARK   14  A    between atoms: _40  and  _41
REMARK   15  A    between atoms: _46  and  _48
REMARK   16  A    between atoms: _48  and  _49
REMARK   17  A    between atoms: _48  and  _51
REMARK   18  A    between atoms: _51  and  _52
REMARK   19  A    between atoms: _57  and  _59
REMARK   20  A    between atoms: _59  and  _60
REMARK   21  A    between atoms: _59  and  _62
REMARK   22  A    between atoms: _62  and  _63
REMARK   23  A    between atoms: _68  and  _70
REMARK   24  A    between atoms: _70  and  _71
REMARK   25  A    between atoms: _70  and  _73
REMARK   26  A    between atoms: _73  and  _74
REMARK   27  A    between atoms: _76  and  _78
REMARK   28  A    between atoms: _78  and  _79
REMARK   29  A    between atoms: _78  and  _81
REMARK   30  A    between atoms: _81  and  _82
REMARK   31  A    between atoms: _82  and  _83
REMARK   32  A    between atoms: _88  and  _90
REMARK   33  A    between atoms: _90  and  _91
REMARK   34  A    between atoms: _90  and  _93
REMARK   35  A    between atoms: _93  and  _94
REMARK   36  A    between atoms: _94  and  _95
REMARK   37  A    between atoms: _98  and  _100
REMARK   38  A    between atoms: _100  and  _101
REMARK   39  A    between atoms: _100  and  _103
REMARK   40  A    between atoms: _103  and  _104
REMARK   41  A    between atoms: _107  and  _109
REMARK   42  A    between atoms: _109  and  _110
REMARK   43  A    between atoms: _109  and  _112
REMARK   44  A    between atoms: _112  and  _113
REMARK   45  A    between atoms: _113  and  _114
REMARK   46  A    between atoms: _119  and  _121
REMARK   47  A    between atoms: _121  and  _122
REMARK   48  A    between atoms: _121  and  _124
REMARK   49  A    between atoms: _124  and  _125
REMARK   50  A    between atoms: _131  and  _133
REMARK   51  A    between atoms: _144  and  _147
REMARK   52  A    between atoms: _147  and  _148
REMARK   53  A    between atoms: _156  and  _157
REMARK   54  A    between atoms: _165  and  _167
REMARK   55  A    between atoms: _167  and  _168
REMARK   56  A    between atoms: _167  and  _170
REMARK   57  A    between atoms: _170  and  _171
REMARK   58  A    between atoms: _171  and  _172
REMARK   59  A    between atoms: _175  and  _177
REMARK   60  A    between atoms: _177  and  _178
REMARK   61  A    between atoms: _177  and  _180
REMARK   62  A    between atoms: _180  and  _181
REMARK   63  A    between atoms: _186  and  _188
REMARK   64  A    between atoms: _188  and  _189
REMARK   65  A    between atoms: _188  and  _191
REMARK   66  A    between atoms: _191  and  _192
REMARK   67  A    between atoms: _192  and  _193
REMARK   68  A    between atoms: _196  and  _198
REMARK   69  A    between atoms: _198  and  _199
REMARK   70  A    between atoms: _198  and  _201
REMARK   71  A    between atoms: _201  and  _202
REMARK   72  A    between atoms: _205  and  _207
REMARK   73  A    between atoms: _207  and  _208
REMARK   74  A    between atoms: _207  and  _210
REMARK   75  A    between atoms: _210  and  _211
REMARK   76  A    between atoms: _212  and  ZN_439
REMARK   77  A    between atoms: _216  and  _218
REMARK   78  A    between atoms: _218  and  _219
REMARK   79  A    between atoms: _218  and  _221
REMARK   80  A    between atoms: _221  and  _222
REMARK   81  A    between atoms: _225  and  _227
REMARK   82  A    between atoms: _227  and  _228
REMARK   83  A    between atoms: _227  and  _230
REMARK   84  A    between atoms: _233  and  _235
REMARK   85  A    between atoms: _235  and  _236
REMARK   86  A    between atoms: _235  and  _238
REMARK   87  A    between atoms: _238  and  _239
REMARK   88  A    between atoms: _244  and  _246
REMARK   89  A    between atoms: _246  and  _247
REMARK   90  A    between atoms: _246  and  _249
REMARK   91  A    between atoms: _249  and  _250
REMARK   92  A    between atoms: _256  and  _258
REMARK   93  A    between atoms: _258  and  _259
REMARK   94  A    between atoms: _261  and  _263
REMARK   95  A    between atoms: _263  and  _264
REMARK   96  A    between atoms: _263  and  _266
REMARK   97  A    between atoms: _269  and  _271
REMARK   98  A    between atoms: _271  and  _272
REMARK   99  A    between atoms: _271  and  _274
REMARK  100  A    between atoms: _274  and  _275
REMARK  101  A    between atoms: _275  and  _276
REMARK  102  A    between atoms: _281  and  _283
REMARK  103  A    between atoms: _283  and  _284
REMARK  104  A    between atoms: _283  and  _286
REMARK  105  A    between atoms: _286  and  _287
REMARK  106  A    between atoms: _290  and  _292
REMARK  107  A    between atoms: _292  and  _293
REMARK  108  A    between atoms: _296  and  _298
REMARK  109  A    between atoms: _298  and  _299
REMARK  110  A    between atoms: _298  and  _301
REMARK  111  A    between atoms: _304  and  _306
REMARK  112  A    between atoms: _306  and  _307
REMARK  113  A    between atoms: _306  and  _309
REMARK  114  A    between atoms: _309  and  _310
REMARK  115  A    between atoms: _313  and  _315
REMARK  116  A    between atoms: _315  and  _316
REMARK  117  A    between atoms: _315  and  _318
REMARK  118  A    between atoms: _318  and  _319
REMARK  119  A    between atoms: _321  and  _323
REMARK  120  A    between atoms: _323  and  _324
REMARK  121  A    between atoms: _323  and  _326
REMARK  122  A    between atoms: _326  and  _327
REMARK  123  A    between atoms: _330  and  _332
REMARK  124  A    between atoms: _332  and  _333
REMARK  125  A    between atoms: _332  and  _335
REMARK  126  A    between atoms: _335  and  _336
REMARK  127  A    between atoms: _339  and  _341
REMARK  128  A    between atoms: _341  and  _342
REMARK  129  A    between atoms: _341  and  _344
REMARK  130  A    between atoms: _344  and  _345
REMARK  131  A    between atoms: _349  and  _350
REMARK  132  A    between atoms: _356  and  _357
REMARK  133  A    between atoms: _362  and  _364
REMARK  134  A    between atoms: _364  and  _365
REMARK  135  A    between atoms: _364  and  _367
REMARK  136  A    between atoms: _367  and  _368
REMARK  137  A    between atoms: _371  and  _373
REMARK  138  A    between atoms: _373  and  _374
REMARK  139  A    between atoms: _373  and  _376
REMARK  140  A    between atoms: _376  and  _377
REMARK  141  A    between atoms: _380  and  _382
REMARK  142  A    between atoms: _382  and  _383
REMARK  143  A    between atoms: _382  and  _385
REMARK  144  A    between atoms: _387  and  _389
REMARK  145  A    between atoms: _389  and  _390
REMARK  146  A    between atoms: _389  and  _392
REMARK  147  A    between atoms: _395  and  _397
REMARK  148  A    between atoms: _397  and  _398
REMARK  149  A    between atoms: _397  and  _400
REMARK  150  A    between atoms: _400  and  _401
REMARK  151  A    between atoms: _411  and  _413
REMARK  152  A    between atoms: _413  and  _414
REMARK  153  A    between atoms: _413  and  _416
REMARK  154  A    between atoms: _416  and  _417
REMARK  155  A    between atoms: _422  and  _424
REMARK  156  A    between atoms: _424  and  _425
REMARK  157  A    between atoms: _424  and  _427
REMARK  158  A    between atoms: _427  and  _428
REMARK  159  A    between atoms: _428  and  _429
REMARK  160  A    between atoms: _429  and  _430
REMARK                            x       y       z     vdW  Elec       q    Type
REMARK                         _______ _______ _______ _____ _____    ______ ____
ROOT
ATOM      1  CA  PHE A   1      -7.761  14.352  15.220  0.00  0.00    +0.149 C 
ENDROOT
BRANCH   1   2
ATOM      2  C   PHE A   1      -6.309  14.407  15.667  0.00  0.00    +0.239 C 
ATOM      3  O   PHE A   1      -5.895  13.787  16.656  0.00  0.00    -0.274 OA
ATOM      4  N   GLY A   2      -5.518  15.187  14.920  0.00  0.00    -0.297 N 
ATOM      5  H   GLY A   2      -5.902  15.694  14.097  0.00  0.00    +0.150 HD
BRANCH   4   6
ATOM      6  CA  GLY A   2      -4.113  15.314  15.277  0.00  0.00    +0.163 C 
BRANCH   6   7
ATOM      7  C   GLY A   2      -3.917  15.860  16.679  0.00  0.00    +0.229 C 
ATOM      8  O   GLY A   2      -2.950  15.477  17.337  0.00  0.00    -0.286 OA
ENDBRANCH   6   7
ENDBRANCH   4   6
ENDBRANCH   1   2
BRANCH   1   9
ATOM      9  N   PHE A   1      -8.255  15.669  14.875  0.00  0.00    -0.238 NA
ATOM     10  H   PHE A   1      -8.543  15.843  13.891  0.00  0.00    +0.142 HD
ENDBRANCH   1   9
BRANCH   1  11
ATOM     11  CB  PHE A   1      -7.912  13.428  14.002  0.00  0.00    +0.053 C 
BRANCH  11  12
ATOM     12  CG  PHE A   1      -7.402  12.021  14.271  0.00  0.00    -0.020 A 
ATOM     13  CD2 PHE A   1      -8.227  11.109  14.911  0.00  0.00    -0.004 A 
ATOM     14  CE2 PHE A   1      -7.789   9.817  15.148  0.00  0.00    -0.000 A 
ATOM     15  CZ  PHE A   1      -6.511   9.459  14.757  0.00  0.00    -0.000 A 
ATOM     16  CE1 PHE A   1      -5.674  10.360  14.117  0.00  0.00    -0.000 A 
ATOM     17  CD1 PHE A   1      -6.132  11.644  13.870  0.00  0.00    -0.004 A 
ENDBRANCH  11  12
ENDBRANCH   1  11
TORSDOF 6
REMARK  Name = ../refined-set-2016/3dbu/3dbu_pocket.pdb
REMARK  160 active torsions:
REMARK  status: ('A' for Active; 'I' for Inactive)
REMARK    1  A    between atoms: _1  and  _3
REMARK    2  A    between atoms: _3  and  _4
REMARK    3  A    between atoms: _3  and  _6
REMARK    4  A    between atoms: _6  and  _7
REMARK    5  A    between atoms: _17  and  _19
REMARK    6  A    between atoms: _19  and  _20
REMARK    7  A    between atoms: _19  and  _22
REMARK    8  A    between atoms: _22  and  _23
REMARK    9  A    between atoms: _28  and  _29
REMARK   10  A    between atoms: _31  and  _33
REMARK   11  A    between atoms: _33  and  _34
REMARK   12  A    between atoms: _33  and  _36
REMARK   13  A    between atoms: _36  and  _37
REMARK   14  A    between atoms: _40  and  _41
REMARK   15  A    between atoms: _46  and  _48
REMARK   16  A    between atoms: _48  and  _49
REMARK   17  A    between atoms: _48  and  _51
REMARK   18  A    between atoms: _51  and  _52
REMARK   19  A    between atoms: _57  and  _59
REMARK   20  A    between atoms: _59  and  _60
REMARK   21  A    between atoms: _59  and  _62
REMARK   22  A    between atoms: _62  and  _63
REMARK   23  A    between atoms: _68  and  _70
REMARK   24  A    between atoms: _70  and  _71
REMARK   25  A    between atoms: _70  and  _73
REMARK   26  A    between atoms: _73  and  _74
REMARK   27  A    between atoms: _76  and  _78
REMARK   28  A    between atoms: _78  and  _79
REMARK   29  A    between atoms: _78  and  _81
REMARK   30  A    between atoms: _81  and  _82
REMARK   31  A    between atoms: _82  and  _83
REMARK   32  A    between atoms: _88  and  _90
REMARK   33  A    between atoms: _90  and  _91
REMARK   34  A    between atoms: _90  and  _93
REMARK   35  A    between atoms: _93  and  _94
REMARK   36  A    between atoms: _94  and  _95
REMARK   37  A    between atoms: _98  and  _100
REMARK   38  A    between atoms: _100  and  _101
REMARK   39  A    between atoms: _100  and  _103
REMARK   40  A    between atoms: _103  and  _104
REMARK   41  A    between atoms: _107  and  _109
REMARK   42  A    between atoms: _109  and  _110
REMARK   43  A    between atoms: _109  and  _112
REMARK   44  A    between atoms: _112  and  _113
REMARK   45  A    between atoms: _113  and  _114
REMARK   46  A    between atoms: _119  and  _121
REMARK   47  A    between atoms: _121  and  _122
REMARK   48  A    between atoms: _121  and  _124
REMARK   49  A    between atoms: _124  and  _125
REMARK   50  A    between atoms: _131  and  _133
REMARK   51  A    between atoms: _144  and  _147
REMARK   52  A    between atoms: _147  and  _148
REMARK   53  A    between atoms: _156  and  _157
REMARK   54  A    between atoms: _165  and  _167
REMARK   55  A    between atoms: _167  and  _168
REMARK   56  A    between atoms: _167  and  _170
REMARK   57  A    between atoms: _170  and  _171
REMARK   58  A    between atoms: _171  and  _172
REMARK   59  A    between atoms: _175  and  _177
REMARK   60  A    between atoms: _177  and  _178
REMARK   61  A    between atoms: _177  and  _180
REMARK   62  A    between atoms: _180  and  _181
REMARK   63  A    between atoms: _186  and  _188
REMARK   64  A    between atoms: _188  and  _189
REMARK   65  A    between atoms: _188  and  _191
REMARK   66  A    between atoms: _191  and  _192
REMARK   67  A    between atoms: _192  and  _193
REMARK   68  A    between atoms: _196  and  _198
REMARK   69  A    between atoms: _198  and  _199
REMARK   70  A    between atoms: _198  and  _201
REMARK   71  A    between atoms: _201  and  _202
REMARK   72  A    between atoms: _205  and  _207
REMARK   73  A    between atoms: _207  and  _208
REMARK   74  A    between atoms: _207  and  _210
REMARK   75  A    between atoms: _210  and  _211
REMARK   76  A    between atoms: _212  and  ZN_439
REMARK   77  A    between atoms: _216  and  _218
REMARK   78  A    between atoms: _218  and  _219
REMARK   79  A    between atoms: _218  and  _221
REMARK   80  A    between atoms: _221  and  _222
REMARK   81  A    between atoms: _225  and  _227
REMARK   82  A    between atoms: _227  and  _228
REMARK   83  A    between atoms: _227  and  _230
REMARK   84  A    between atoms: _233  and  _235
REMARK   85  A    between atoms: _235  and  _236
REMARK   86  A    between atoms: _235  and  _238
REMARK   87  A    between atoms: _238  and  _239
REMARK   88  A    between atoms: _244  and  _246
REMARK   89  A    between atoms: _246  and  _247
REMARK   90  A    between atoms: _246  and  _249
REMARK   91  A    between atoms: _249  and  _250
REMARK   92  A    between atoms: _256  and  _258
REMARK   93  A    between atoms: _258  and  _259
REMARK   94  A    between atoms: _261  and  _263
REMARK   95  A    between atoms: _263  and  _264
REMARK   96  A    between atoms: _263  and  _266
REMARK   97  A    between atoms: _269  and  _271
REMARK   98  A    between atoms: _271  and  _272
REMARK   99  A    between atoms: _271  and  _274
REMARK  100  A    between atoms: _274  and  _275
REMARK  101  A    between atoms: _275  and  _276
REMARK  102  A    between atoms: _281  and  _283
REMARK  103  A    between atoms: _283  and  _284
REMARK  104  A    between atoms: _283  and  _286
REMARK  105  A    between atoms: _286  and  _287
REMARK  106  A    between atoms: _290  and  _292
REMARK  107  A    between atoms: _292  and  _293
REMARK  108  A    between atoms: _296  and  _298
REMARK  109  A    between atoms: _298  and  _299
REMARK  110  A    between atoms: _298  and  _301
REMARK  111  A    between atoms: _304  and  _306
REMARK  112  A    between atoms: _306  and  _307
REMARK  113  A    between atoms: _306  and  _309
REMARK  114  A    between atoms: _309  and  _310
REMARK  115  A    between atoms: _313  and  _315
REMARK  116  A    between atoms: _315  and  _316
REMARK  117  A    between atoms: _315  and  _318
REMARK  118  A    between atoms: _318  and  _319
REMARK  119  A    between atoms: _321  and  _323
REMARK  120  A    between atoms: _323  and  _324
REMARK  121  A    between atoms: _323  and  _326
REMARK  122  A    between atoms: _326  and  _327
REMARK  123  A    between atoms: _330  and  _332
REMARK  124  A    between atoms: _332  and  _333
REMARK  125  A    between atoms: _332  and  _335
REMARK  126  A    between atoms: _335  and  _336
REMARK  127  A    between atoms: _339  and  _341
REMARK  128  A    between atoms: _341  and  _342
REMARK  129  A    between atoms: _341  and  _344
REMARK  130  A    between atoms: _344  and  _345
REMARK  131  A    between atoms: _349  and  _350
REMARK  132  A    between atoms: _356  and  _357
REMARK  133  A    between atoms: _362  and  _364
REMARK  134  A    between atoms: _364  and  _365
REMARK  135  A    between atoms: _364  and  _367
REMARK  136  A    between atoms: _367  and  _368
REMARK  137  A    between atoms: _371  and  _373
REMARK  138  A    between atoms: _373  and  _374
REMARK  139  A    between atoms: _373  and  _376
REMARK  140  A    between atoms: _376  and  _377
REMARK  141  A    between atoms: _380  and  _382
REMARK  142  A    between atoms: _382  and  _383
REMARK  143  A    between atoms: _382  and  _385
REMARK  144  A    between atoms: _387  and  _389
REMARK  145  A    between atoms: _389  and  _390
REMARK  146  A    between atoms: _389  and  _392
REMARK  147  A    between atoms: _395  and  _397
REMARK  148  A    between atoms: _397  and  _398
REMARK  149  A    between atoms: _397  and  _400
REMARK  150  A    between atoms: _400  and  _401
REMARK  151  A    between atoms: _411  and  _413
REMARK  152  A    between atoms: _413  and  _414
REMARK  153  A    between atoms: _413  and  _416
REMARK  154  A    between atoms: _416  and  _417
REMARK  155  A    between atoms: _422  and  _424
REMARK  156  A    between atoms: _424  and  _425
REMARK  157  A    between atoms: _424  and  _427
REMARK  158  A    between atoms: _427  and  _428
REMARK  159  A    between atoms: _428  and  _429
REMARK  160  A    between atoms: _429  and  _430
REMARK                            x       y       z     vdW  Elec       q    Type
REMARK                         _______ _______ _______ _____ _____    ______ ____
ROOT
ATOM      1  C   VAL A   1      -3.057  12.280  20.744  0.00  0.00    +0.238 C 
ATOM      2  O   VAL A   1      -2.345  11.388  21.226  0.00  0.00    -0.274 OA
ATOM      3  N   GLN A   2      -2.952  13.570  21.047  0.00  0.00    -0.298 N 
ATOM      4  H   GLN A   2      -3.564  14.278  20.594  0.00  0.00    +0.150 HD
ENDROOT
BRANCH   1   5
ATOM      5  CA  VAL A   1      -4.148  11.900  19.745  0.00  0.00    +0.145 C 
BRANCH   5   6
ATOM      6  CB  VAL A   1      -3.444  11.243  18.535  0.00  0.00    +0.025 C 
ATOM      7  CG2 VAL A   1      -2.457  12.204  17.888  0.00  0.00    +0.002 C 
ATOM      8  CG1 VAL A   1      -4.457  10.741  17.524  0.00  0.00    +0.002 C 
ENDBRANCH   5   6
BRANCH   5   9
ATOM      9  N   VAL A   1      -5.027  13.031  19.439  0.00  0.00    -0.238 NA
ATOM     10  H   VAL A   1      -4.992  13.481  18.502  0.00  0.00    +0.142 HD
ENDBRANCH   5   9
ENDBRANCH   1   5
BRANCH   3  11
ATOM     11  CA  GLN A   2      -1.953  13.963  22.034  0.00  0.00    +0.137 C 
BRANCH  11  12
ATOM     12  C   GLN A   2      -2.576  14.083  23.418  0.00  0.00    +0.227 C 
ATOM     13  O   GLN A   2      -1.900  14.551  24.332  0.00  0.00    -0.286 OA
ENDBRANCH  11  12
BRANCH  11  14
ATOM     14  CB  GLN A   2      -1.297  15.286  21.612  0.00  0.00    +0.037 C 
BRANCH  14  15
ATOM     15  CG  GLN A   2      -0.282  15.091  20.488  0.00  0.00    +0.087 C 
BRANCH  15  16
ATOM     16  CD  GLN A   2       1.039  14.569  21.034  0.00  0.00    +0.219 C 
ATOM     17  NE2 GLN A   2       1.705  15.392  21.839  0.00  0.00    -0.329 N 
ATOM     18 HE21 GLN A   2       2.614  15.096  22.249  0.00  0.00    +0.145 HD
ATOM     19 HE22 GLN A   2       1.317  16.332  22.059  0.00  0.00    +0.145 HD
ATOM     20  OE1 GLN A   2       1.461  13.450  20.748  0.00  0.00    -0.275 OA
ENDBRANCH  15  16
ENDBRANCH  14  15
ENDBRANCH  11  14
ENDBRANCH   3  11
TORSDOF 8
REMARK  Name = ../refined-set-2016/3dbu/3dbu_pocket.pdb
REMARK  160 active torsions:
REMARK  status: ('A' for Active; 'I' for Inactive)
REMARK    1  A    between atoms: _1  and  _3
REMARK    2  A    between atoms: _3  and  _4
REMARK    3  A    between atoms: _3  and  _6
REMARK    4  A    between atoms: _6  and  _7
REMARK    5  A    between atoms: _17  and  _19
REMARK    6  A    between atoms: _19  and  _20
REMARK    7  A    between atoms: _19  and  _22
REMARK    8  A    between atoms: _22  and  _23
REMARK    9  A    between atoms: _28  and  _29
REMARK   10  A    between atoms: _31  and  _33
REMARK   11  A    between atoms: _33  and  _34
REMARK   12  A    between atoms: _33  and  _36
REMARK   13  A    between atoms: _36  and  _37
REMARK   14  A    between atoms: _40  and  _41
REMARK   15  A    between atoms: _46  and  _48
REMARK   16  A    between atoms: _48  and  _49
REMARK   17  A    between atoms: _48  and  _51
REMARK   18  A    between atoms: _51  and  _52
REMARK   19  A    between atoms: _57  and  _59
REMARK   20  A    between atoms: _59  and  _60
REMARK   21  A    between atoms: _59  and  _62
REMARK   22  A    between atoms: _62  and  _63
REMARK   23  A    between atoms: _68  and  _70
REMARK   24  A    between atoms: _70  and  _71
REMARK   25  A    between atoms: _70  and  _73
REMARK   26  A    between atoms: _73  and  _74
REMARK   27  A    between atoms: _76  and  _78
REMARK   28  A    between atoms: _78  and  _79
REMARK   29  A    between atoms: _78  and  _81
REMARK   30  A    between atoms: _81  and  _82
REMARK   31  A    between atoms: _82  and  _83
REMARK   32  A    between atoms: _88  and  _90
REMARK   33  A    between atoms: _90  and  _91
REMARK   34  A    between atoms: _90  and  _93
REMARK   35  A    between atoms: _93  and  _94
REMARK   36  A    between atoms: _94  and  _95
REMARK   37  A    between atoms: _98  and  _100
REMARK   38  A    between atoms: _100  and  _101
REMARK   39  A    between atoms: _100  and  _103
REMARK   40  A    between atoms: _103  and  _104
REMARK   41  A    between atoms: _107  and  _109
REMARK   42  A    between atoms: _109  and  _110
REMARK   43  A    between atoms: _109  and  _112
REMARK   44  A    between atoms: _112  and  _113
REMARK   45  A    between atoms: _113  and  _114
REMARK   46  A    between atoms: _119  and  _121
REMARK   47  A    between atoms: _121  and  _122
REMARK   48  A    between atoms: _121  and  _124
REMARK   49  A    between atoms: _124  and  _125
REMARK   50  A    between atoms: _131  and  _133
REMARK   51  A    between atoms: _144  and  _147
REMARK   52  A    between atoms: _147  and  _148
REMARK   53  A    between atoms: _156  and  _157
REMARK   54  A    between atoms: _165  and  _167
REMARK   55  A    between atoms: _167  and  _168
REMARK   56  A    between atoms: _167  and  _170
REMARK   57  A    between atoms: _170  and  _171
REMARK   58  A    between atoms: _171  and  _172
REMARK   59  A    between atoms: _175  and  _177
REMARK   60  A    between atoms: _177  and  _178
REMARK   61  A    between atoms: _177  and  _180
REMARK   62  A    between atoms: _180  and  _181
REMARK   63  A    between atoms: _186  and  _188
REMARK   64  A    between atoms: _188  and  _189
REMARK   65  A    between atoms: _188  and  _191
REMARK   66  A    between atoms: _191  and  _192
REMARK   67  A    between atoms: _192  and  _193
REMARK   68  A    between atoms: _196  and  _198
REMARK   69  A    between atoms: _198  and  _199
REMARK   70  A    between atoms: _198  and  _201
REMARK   71  A    between atoms: _201  and  _202
REMARK   72  A    between atoms: _205  and  _207
REMARK   73  A    between atoms: _207  and  _208
REMARK   74  A    between atoms: _207  and  _210
REMARK   75  A    between atoms: _210  and  _211
REMARK   76  A    between atoms: _212  and  ZN_439
REMARK   77  A    between atoms: _216  and  _218
REMARK   78  A    between atoms: _218  and  _219
REMARK   79  A    between atoms: _218  and  _221
REMARK   80  A    between atoms: _221  and  _222
REMARK   81  A    between atoms: _225  and  _227
REMARK   82  A    between atoms: _227  and  _228
REMARK   83  A    between atoms: _227  and  _230
REMARK   84  A    between atoms: _233  and  _235
REMARK   85  A    between atoms: _235  and  _236
REMARK   86  A    between atoms: _235  and  _238
REMARK   87  A    between atoms: _238  and  _239
REMARK   88  A    between atoms: _244  and  _246
REMARK   89  A    between atoms: _246  and  _247
REMARK   90  A    between atoms: _246  and  _249
REMARK   91  A    between atoms: _249  and  _250
REMARK   92  A    between atoms: _256  and  _258
REMARK   93  A    between atoms: _258  and  _259
REMARK   94  A    between atoms: _261  and  _263
REMARK   95  A    between atoms: _263  and  _264
REMARK   96  A    between atoms: _263  and  _266
REMARK   97  A    between atoms: _269  and  _271
REMARK   98  A    between atoms: _271  and  _272
REMARK   99  A    between atoms: _271  and  _274
REMARK  100  A    between atoms: _274  and  _275
REMARK  101  A    between atoms: _275  and  _276
REMARK  102  A    between atoms: _281  and  _283
REMARK  103  A    between atoms: _283  and  _284
REMARK  104  A    between atoms: _283  and  _286
REMARK  105  A    between atoms: _286  and  _287
REMARK  106  A    between atoms: _290  and  _292
REMARK  107  A    between atoms: _292  and  _293
REMARK  108  A    between atoms: _296  and  _298
REMARK  109  A    between atoms: _298  and  _299
REMARK  110  A    between atoms: _298  and  _301
REMARK  111  A    between atoms: _304  and  _306
REMARK  112  A    between atoms: _306  and  _307
REMARK  113  A    between atoms: _306  and  _309
REMARK  114  A    between atoms: _309  and  _310
REMARK  115  A    between atoms: _313  and  _315
REMARK  116  A    between atoms: _315  and  _316
REMARK  117  A    between atoms: _315  and  _318
REMARK  118  A    between atoms: _318  and  _319
REMARK  119  A    between atoms: _321  and  _323
REMARK  120  A    between atoms: _323  and  _324
REMARK  121  A    between atoms: _323  and  _326
REMARK  122  A    between atoms: _326  and  _327
REMARK  123  A    between atoms: _330  and  _332
REMARK  124  A    between atoms: _332  and  _333
REMARK  125  A    between atoms: _332  and  _335
REMARK  126  A    between atoms: _335  and  _336
REMARK  127  A    between atoms: _339  and  _341
REMARK  128  A    between atoms: _341  and  _342
REMARK  129  A    between atoms: _341  and  _344
REMARK  130  A    between atoms: _344  and  _345
REMARK  131  A    between atoms: _349  and  _350
REMARK  132  A    between atoms: _356  and  _357
REMARK  133  A    between atoms: _362  and  _364
REMARK  134  A    between atoms: _364  and  _365
REMARK  135  A    between atoms: _364  and  _367
REMARK  136  A    between atoms: _367  and  _368
REMARK  137  A    between atoms: _371  and  _373
REMARK  138  A    between atoms: _373  and  _374
REMARK  139  A    between atoms: _373  and  _376
REMARK  140  A    between atoms: _376  and  _377
REMARK  141  A    between atoms: _380  and  _382
REMARK  142  A    between atoms: _382  and  _383
REMARK  143  A    between atoms: _382  and  _385
REMARK  144  A    between atoms: _387  and  _389
REMARK  145  A    between atoms: _389  and  _390
REMARK  146  A    between atoms: _389  and  _392
REMARK  147  A    between atoms: _395  and  _397
REMARK  148  A    between atoms: _397  and  _398
REMARK  149  A    between atoms: _397  and  _400
REMARK  150  A    between atoms: _400  and  _401
REMARK  151  A    between atoms: _411  and  _413
REMARK  152  A    between atoms: _413  and  _414
REMARK  153  A    between atoms: _413  and  _416
REMARK  154  A    between atoms: _416  and  _417
REMARK  155  A    between atoms: _422  and  _424
REMARK  156  A    between atoms: _424  and  _425
REMARK  157  A    between atoms: _424  and  _427
REMARK  158  A    between atoms: _427  and  _428
REMARK  159  A    between atoms: _428  and  _429
REMARK  160  A    between atoms: _429  and  _430
REMARK                            x       y       z     vdW  Elec       q    Type
REMARK                         _______ _______ _______ _____ _____    ______ ____
ROOT
ATOM      1  C   ALA A   2     -12.335   5.058  20.833  0.00  0.00    +0.241 C 
ATOM      2  N   VAL A   3     -11.929   3.829  21.108  0.00  0.00    -0.297 N 
ATOM      3  H   VAL A   3     -11.585   3.586  22.059  0.00  0.00    +0.150 HD
ATOM      4  O   ALA A   2     -12.743   5.395  19.724  0.00  0.00    -0.273 OA
ENDROOT
BRANCH   1   5
ATOM      5  CA  ALA A   2     -12.232   6.077  21.964  0.00  0.00    +0.149 C 
ATOM      6  CB  ALA A   2     -13.572   6.482  22.496  0.00  0.00    +0.031 C 
BRANCH   5   9
ATOM      7  C   LEU A   1     -10.450   7.711  22.091  0.00  0.00    +0.238 C 
ATOM      8  O   LEU A   1     -10.188   7.394  23.261  0.00  0.00    -0.274 OA
ATOM      9  N   ALA A   2     -11.484   7.222  21.412  0.00  0.00    -0.297 N 
ATOM     10  H   ALA A   2     -11.762   7.642  20.502  0.00  0.00    +0.150 HD
BRANCH   7  11
ATOM     11  CA  LEU A   1      -9.566   8.686  21.315  0.00  0.00    +0.145 C 
BRANCH  11  12
ATOM     12  N   LEU A   1      -8.939   9.649  22.231  0.00  0.00    -0.238 NA
ATOM     13  H   LEU A   1      -8.320   9.309  22.994  0.00  0.00    +0.142 HD
ENDBRANCH  11  12
BRANCH  11  14
ATOM     14  CB  LEU A   1      -8.533   7.881  20.540  0.00  0.00    +0.026 C 
BRANCH  14  15
ATOM     15  CG  LEU A   1      -7.623   8.549  19.517  0.00  0.00    +0.002 C 
ATOM     16  CD2 LEU A   1      -8.322   9.663  18.749  0.00  0.00    +0.000 C 
ATOM     17  CD1 LEU A   1      -7.056   7.527  18.529  0.00  0.00    +0.000 C 
ENDBRANCH  14  15
ENDBRANCH  11  14
ENDBRANCH   7  11
ENDBRANCH   5   9
ENDBRANCH   1   5
BRANCH   2  18
ATOM     18  CA  VAL A   3     -11.973   2.821  20.053  0.00  0.00    +0.149 C 
BRANCH  18  19
ATOM     19  C   VAL A   3     -12.928   1.721  20.532  0.00  0.00    +0.241 C 
ATOM     20  O   VAL A   3     -12.709   1.236  21.651  0.00  0.00    -0.273 OA
ATOM     21  N   LEU A   4     -13.923   1.433  19.713  0.00  0.00    -0.298 N 
ATOM     22  H   LEU A   4     -14.032   2.003  18.850  0.00  0.00    +0.150 HD
BRANCH  21  23
ATOM     23  CA  LEU A   4     -14.874   0.360  19.955  0.00  0.00    +0.137 C 
BRANCH  23  24
ATOM     24  C   LEU A   4     -14.282  -0.903  19.346  0.00  0.00    +0.227 C 
ATOM     25  O   LEU A   4     -14.035  -0.896  18.146  0.00  0.00    -0.286 OA
ENDBRANCH  23  24
BRANCH  23  26
ATOM     26  CB  LEU A   4     -16.191   0.745  19.293  0.00  0.00    +0.028 C 
BRANCH  26  27
ATOM     27  CG  LEU A   4     -17.506   0.075  19.625  0.00  0.00    +0.002 C 
ATOM     28  CD2 LEU A   4     -17.667  -0.013  21.133  0.00  0.00    +0.000 C 
ATOM     29  CD1 LEU A   4     -18.679   0.825  18.993  0.00  0.00    +0.000 C 
ENDBRANCH  26  27
ENDBRANCH  23  26
ENDBRANCH  21  23
ENDBRANCH  18  19
BRANCH  18  30
ATOM     30  CB  VAL A   3     -10.594   2.223  19.736  0.00  0.00    +0.027 C 
ATOM     31  CG2 VAL A   3      -9.616   3.307  19.307  0.00  0.00    +0.002 C 
ATOM     32  CG1 VAL A   3     -10.727   1.149  18.642  0.00  0.00    +0.002 C 
ENDBRANCH  18  30
ENDBRANCH   2  18
TORSDOF 13
REMARK  Name = ../refined-set-2016/3dbu/3dbu_pocket.pdb
REMARK  160 active torsions:
REMARK  status: ('A' for Active; 'I' for Inactive)
REMARK    1  A    between atoms: _1  and  _3
REMARK    2  A    between atoms: _3  and  _4
REMARK    3  A    between atoms: _3  and  _6
REMARK    4  A    between atoms: _6  and  _7
REMARK    5  A    between atoms: _17  and  _19
REMARK    6  A    between atoms: _19  and  _20
REMARK    7  A    between atoms: _19  and  _22
REMARK    8  A    between atoms: _22  and  _23
REMARK    9  A    between atoms: _28  and  _29
REMARK   10  A    between atoms: _31  and  _33
REMARK   11  A    between atoms: _33  and  _34
REMARK   12  A    between atoms: _33  and  _36
REMARK   13  A    between atoms: _36  and  _37
REMARK   14  A    between atoms: _40  and  _41
REMARK   15  A    between atoms: _46  and  _48
REMARK   16  A    between atoms: _48  and  _49
REMARK   17  A    between atoms: _48  and  _51
REMARK   18  A    between atoms: _51  and  _52
REMARK   19  A    between atoms: _57  and  _59
REMARK   20  A    between atoms: _59  and  _60
REMARK   21  A    between atoms: _59  and  _62
REMARK   22  A    between atoms: _62  and  _63
REMARK   23  A    between atoms: _68  and  _70
REMARK   24  A    between atoms: _70  and  _71
REMARK   25  A    between atoms: _70  and  _73
REMARK   26  A    between atoms: _73  and  _74
REMARK   27  A    between atoms: _76  and  _78
REMARK   28  A    between atoms: _78  and  _79
REMARK   29  A    between atoms: _78  and  _81
REMARK   30  A    between atoms: _81  and  _82
REMARK   31  A    between atoms: _82  and  _83
REMARK   32  A    between atoms: _88  and  _90
REMARK   33  A    between atoms: _90  and  _91
REMARK   34  A    between atoms: _90  and  _93
REMARK   35  A    between atoms: _93  and  _94
REMARK   36  A    between atoms: _94  and  _95
REMARK   37  A    between atoms: _98  and  _100
REMARK   38  A    between atoms: _100  and  _101
REMARK   39  A    between atoms: _100  and  _103
REMARK   40  A    between atoms: _103  and  _104
REMARK   41  A    between atoms: _107  and  _109
REMARK   42  A    between atoms: _109  and  _110
REMARK   43  A    between atoms: _109  and  _112
REMARK   44  A    between atoms: _112  and  _113
REMARK   45  A    between atoms: _113  and  _114
REMARK   46  A    between atoms: _119  and  _121
REMARK   47  A    between atoms: _121  and  _122
REMARK   48  A    between atoms: _121  and  _124
REMARK   49  A    between atoms: _124  and  _125
REMARK   50  A    between atoms: _131  and  _133
REMARK   51  A    between atoms: _144  and  _147
REMARK   52  A    between atoms: _147  and  _148
REMARK   53  A    between atoms: _156  and  _157
REMARK   54  A    between atoms: _165  and  _167
REMARK   55  A    between atoms: _167  and  _168
REMARK   56  A    between atoms: _167  and  _170
REMARK   57  A    between atoms: _170  and  _171
REMARK   58  A    between atoms: _171  and  _172
REMARK   59  A    between atoms: _175  and  _177
REMARK   60  A    between atoms: _177  and  _178
REMARK   61  A    between atoms: _177  and  _180
REMARK   62  A    between atoms: _180  and  _181
REMARK   63  A    between atoms: _186  and  _188
REMARK   64  A    between atoms: _188  and  _189
REMARK   65  A    between atoms: _188  and  _191
REMARK   66  A    between atoms: _191  and  _192
REMARK   67  A    between atoms: _192  and  _193
REMARK   68  A    between atoms: _196  and  _198
REMARK   69  A    between atoms: _198  and  _199
REMARK   70  A    between atoms: _198  and  _201
REMARK   71  A    between atoms: _201  and  _202
REMARK   72  A    between atoms: _205  and  _207
REMARK   73  A    between atoms: _207  and  _208
REMARK   74  A    between atoms: _207  and  _210
REMARK   75  A    between atoms: _210  and  _211
REMARK   76  A    between atoms: _212  and  ZN_439
REMARK   77  A    between atoms: _216  and  _218
REMARK   78  A    between atoms: _218  and  _219
REMARK   79  A    between atoms: _218  and  _221
REMARK   80  A    between atoms: _221  and  _222
REMARK   81  A    between atoms: _225  and  _227
REMARK   82  A    between atoms: _227  and  _228
REMARK   83  A    between atoms: _227  and  _230
REMARK   84  A    between atoms: _233  and  _235
REMARK   85  A    between atoms: _235  and  _236
REMARK   86  A    between atoms: _235  and  _238
REMARK   87  A    between atoms: _238  and  _239
REMARK   88  A    between atoms: _244  and  _246
REMARK   89  A    between atoms: _246  and  _247
REMARK   90  A    between atoms: _246  and  _249
REMARK   91  A    between atoms: _249  and  _250
REMARK   92  A    between atoms: _256  and  _258
REMARK   93  A    between atoms: _258  and  _259
REMARK   94  A    between atoms: _261  and  _263
REMARK   95  A    between atoms: _263  and  _264
REMARK   96  A    between atoms: _263  and  _266
REMARK   97  A    between atoms: _269  and  _271
REMARK   98  A    between atoms: _271  and  _272
REMARK   99  A    between atoms: _271  and  _274
REMARK  100  A    between atoms: _274  and  _275
REMARK  101  A    between atoms: _275  and  _276
REMARK  102  A    between atoms: _281  and  _283
REMARK  103  A    between atoms: _283  and  _284
REMARK  104  A    between atoms: _283  and  _286
REMARK  105  A    between atoms: _286  and  _287
REMARK  106  A    between atoms: _290  and  _292
REMARK  107  A    between atoms: _292  and  _293
REMARK  108  A    between atoms: _296  and  _298
REMARK  109  A    between atoms: _298  and  _299
REMARK  110  A    between atoms: _298  and  _301
REMARK  111  A    between atoms: _304  and  _306
REMARK  112  A    between atoms: _306  and  _307
REMARK  113  A    between atoms: _306  and  _309
REMARK  114  A    between atoms: _309  and  _310
REMARK  115  A    between atoms: _313  and  _315
REMARK  116  A    between atoms: _315  and  _316
REMARK  117  A    between atoms: _315  and  _318
REMARK  118  A    between atoms: _318  and  _319
REMARK  119  A    between atoms: _321  and  _323
REMARK  120  A    between atoms: _323  and  _324
REMARK  121  A    between atoms: _323  and  _326
REMARK  122  A    between atoms: _326  and  _327
REMARK  123  A    between atoms: _330  and  _332
REMARK  124  A    between atoms: _332  and  _333
REMARK  125  A    between atoms: _332  and  _335
REMARK  126  A    between atoms: _335  and  _336
REMARK  127  A    between atoms: _339  and  _341
REMARK  128  A    between atoms: _341  and  _342
REMARK  129  A    between atoms: _341  and  _344
REMARK  130  A    between atoms: _344  and  _345
REMARK  131  A    between atoms: _349  and  _350
REMARK  132  A    between atoms: _356  and  _357
REMARK  133  A    between atoms: _362  and  _364
REMARK  134  A    between atoms: _364  and  _365
REMARK  135  A    between atoms: _364  and  _367
REMARK  136  A    between atoms: _367  and  _368
REMARK  137  A    between atoms: _371  and  _373
REMARK  138  A    between atoms: _373  and  _374
REMARK  139  A    between atoms: _373  and  _376
REMARK  140  A    between atoms: _376  and  _377
REMARK  141  A    between atoms: _380  and  _382
REMARK  142  A    between atoms: _382  and  _383
REMARK  143  A    between atoms: _382  and  _385
REMARK  144  A    between atoms: _387  and  _389
REMARK  145  A    between atoms: _389  and  _390
REMARK  146  A    between atoms: _389  and  _392
REMARK  147  A    between atoms: _395  and  _397
REMARK  148  A    between atoms: _397  and  _398
REMARK  149  A    between atoms: _397  and  _400
REMARK  150  A    between atoms: _400  and  _401
REMARK  151  A    between atoms: _411  and  _413
REMARK  152  A    between atoms: _413  and  _414
REMARK  153  A    between atoms: _413  and  _416
REMARK  154  A    between atoms: _416  and  _417
REMARK  155  A    between atoms: _422  and  _424
REMARK  156  A    between atoms: _424  and  _425
REMARK  157  A    between atoms: _424  and  _427
REMARK  158  A    between atoms: _427  and  _428
REMARK  159  A    between atoms: _428  and  _429
REMARK  160  A    between atoms: _429  and  _430
REMARK                            x       y       z     vdW  Elec       q    Type
REMARK                         _______ _______ _______ _____ _____    ______ ____
ROOT
ATOM      1  C   THR A   4       1.087   1.389  16.425  0.00  0.00    +0.246 C 
ATOM      2  O   THR A   4       0.513   2.317  17.043  0.00  0.00    -0.273 OA
ATOM      3  N   PRO A   5       2.328   1.443  15.980  0.00  0.00    -0.272 N 
ATOM      4  CA  PRO A   5       3.086   2.704  16.072  0.00  0.00    +0.152 C 
ATOM      5  CB  PRO A   5       4.297   2.418  15.174  0.00  0.00    +0.031 C 
ATOM      6  CG  PRO A   5       4.544   0.956  15.453  0.00  0.00    +0.024 C 
ATOM      7  CD  PRO A   5       3.144   0.365  15.394  0.00  0.00    +0.094 C 
ENDROOT
BRANCH   4   8
ATOM      8  C   PRO A   5       2.274   3.877  15.559  0.00  0.00    +0.244 C 
ATOM      9  N   PRO A   6       2.309   5.047  16.172  0.00  0.00    -0.272 N 
ATOM     10  CA  PRO A   6       3.175   5.416  17.283  0.00  0.00    +0.152 C 
ATOM     11  CB  PRO A   6       3.157   6.965  17.216  0.00  0.00    +0.031 C 
ATOM     12  CG  PRO A   6       1.854   7.295  16.597  0.00  0.00    +0.024 C 
ATOM     13  CD  PRO A   6       1.502   6.178  15.654  0.00  0.00    +0.094 C 
ATOM     14  O   PRO A   5       1.555   3.743  14.544  0.00  0.00    -0.273 OA
BRANCH  10  15
ATOM     15  C   PRO A   6       2.779   4.987  18.695  0.00  0.00    +0.241 C 
ATOM     16  O   PRO A   6       3.469   5.433  19.622  0.00  0.00    -0.273 OA
ATOM     17  N   LEU A   7       1.765   4.155  18.885  0.00  0.00    -0.297 N 
ATOM     18  H   LEU A   7       1.134   3.952  18.083  0.00  0.00    +0.150 HD
BRANCH  17  19
ATOM     19  CA  LEU A   7       1.489   3.505  20.174  0.00  0.00    +0.149 C 
BRANCH  19  20
ATOM     20  C   LEU A   7       1.141   4.502  21.262  0.00  0.00    +0.241 C 
ATOM     21  O   LEU A   7       1.363   4.267  22.454  0.00  0.00    -0.273 OA
ATOM     22  N   LEU A   8       0.587   5.637  20.837  0.00  0.00    -0.298 N 
ATOM     23  H   LEU A   8       0.371   5.763  19.828  0.00  0.00    +0.150 HD
BRANCH  22  24
ATOM     24  CA  LEU A   8       0.283   6.703  21.785  0.00  0.00    +0.137 C 
BRANCH  24  25
ATOM     25  C   LEU A   8      -0.745   6.248  22.813  0.00  0.00    +0.227 C 
ATOM     26  O   LEU A   8      -1.733   5.556  22.527  0.00  0.00    -0.286 OA
ENDBRANCH  24  25
BRANCH  24  27
ATOM     27  CB  LEU A   8      -0.245   7.920  21.021  0.00  0.00    +0.028 C 
BRANCH  27  28
ATOM     28  CG  LEU A   8       0.754   8.495  19.998  0.00  0.00    +0.002 C 
ATOM     29  CD2 LEU A   8       2.032   8.946  20.674  0.00  0.00    +0.000 C 
ATOM     30  CD1 LEU A   8       0.111   9.641  19.244  0.00  0.00    +0.000 C 
ENDBRANCH  27  28
ENDBRANCH  24  27
ENDBRANCH  22  24
ENDBRANCH  19  20
BRANCH  19  31
ATOM     31  CB  LEU A   7       2.687   2.638  20.598  0.00  0.00    +0.029 C 
BRANCH  31  32
ATOM     32  CG  LEU A   7       3.046   1.520  19.603  0.00  0.00    +0.002 C 
ATOM     33  CD2 LEU A   7       4.388   0.906  20.004  0.00  0.00    +0.000 C 
ATOM     34  CD1 LEU A   7       1.967   0.465  19.544  0.00  0.00    +0.000 C 
ENDBRANCH  31  32
ENDBRANCH  19  31
ENDBRANCH  17  19
ENDBRANCH  10  15
ENDBRANCH   4   8
BRANCH   1  35
ATOM     35  CA  THR A   4       0.259   0.126  16.162  0.00  0.00    +0.176 C 
BRANCH  35  38
ATOM     36  C   THR A   3      -0.930  -1.032  17.937  0.00  0.00    +0.243 C 
ATOM     37  O   THR A   3      -0.333  -2.093  17.755  0.00  0.00    -0.273 OA
ATOM     38  N   THR A   4      -0.800   0.043  17.167  0.00  0.00    -0.295 N 
ATOM     39  H   THR A   4      -1.461   0.837  17.281  0.00  0.00    +0.150 HD
BRANCH  36  40
ATOM     40  CA  THR A   3      -1.905  -0.950  19.112  0.00  0.00    +0.176 C 
BRANCH  40  43
ATOM     41  C   LEU A   2      -2.215   1.275  19.960  0.00  0.00    +0.241 C 
ATOM     42  O   LEU A   2      -1.249   1.131  20.732  0.00  0.00    -0.273 OA
ATOM     43  N   THR A   3      -2.626   0.320  19.123  0.00  0.00    -0.295 N 
ATOM     44  H   THR A   3      -3.440   0.476  18.494  0.00  0.00    +0.150 HD
BRANCH  41  45
ATOM     45  CA  LEU A   2      -2.977   2.591  19.933  0.00  0.00    +0.149 C 
BRANCH  45  48
ATOM     46  C   SER A   1      -3.432   2.492  22.305  0.00  0.00    +0.241 C 
ATOM     47  O   SER A   1      -4.250   1.582  22.141  0.00  0.00    -0.274 OA
ATOM     48  N   LEU A   2      -2.900   3.157  21.283  0.00  0.00    -0.297 N 
ATOM     49  H   LEU A   2      -2.433   4.073  21.441  0.00  0.00    +0.150 HD
BRANCH  46  50
ATOM     50  CA  SER A   1      -3.038   2.894  23.723  0.00  0.00    +0.174 C 
BRANCH  50  51
ATOM     51  N   SER A   1      -3.862   2.237  24.736  0.00  0.00    -0.236 NA
ATOM     52  H   SER A   1      -4.116   1.235  24.627  0.00  0.00    +0.142 HD
ENDBRANCH  50  51
BRANCH  50  53
ATOM     53  CB  SER A   1      -1.571   2.506  23.962  0.00  0.00    +0.163 C 
BRANCH  53  54
ATOM     54  OG  SER A   1      -1.349   1.193  23.445  0.00  0.00    -0.380 OA
ATOM     55  H   SER A   1      -1.544   1.184  22.474  0.00  0.00    +0.211 HD
ENDBRANCH  53  54
ENDBRANCH  50  53
ENDBRANCH  46  50
ENDBRANCH  45  48
BRANCH  45  56
ATOM     56  CB  LEU A   2      -2.357   3.528  18.903  0.00  0.00    +0.029 C 
BRANCH  56  57
ATOM     57  CG  LEU A   2      -2.991   4.934  18.864  0.00  0.00    +0.002 C 
ATOM     58  CD2 LEU A   2      -4.417   4.865  18.371  0.00  0.00    +0.000 C 
ATOM     59  CD1 LEU A   2      -2.150   5.852  17.984  0.00  0.00    +0.000 C 
ENDBRANCH  56  57
ENDBRANCH  45  56
ENDBRANCH  41  45
ENDBRANCH  40  43
BRANCH  40  60
ATOM     60  CB  THR A   3      -2.838  -2.157  18.998  0.00  0.00    +0.137 C 
ATOM     61  CG2 THR A   3      -3.856  -2.116  20.147  0.00  0.00    +0.034 C 
BRANCH  60  62
ATOM     62  OG1 THR A   3      -3.526  -2.091  17.739  0.00  0.00    -0.382 OA
ATOM     63  HG1 THR A   3      -4.133  -2.868  17.655  0.00  0.00    +0.210 HD
ENDBRANCH  60  62
ENDBRANCH  40  60
ENDBRANCH  36  40
ENDBRANCH  35  38
BRANCH  35  64
ATOM     64  CB  THR A   4      -0.279   0.198  14.719  0.00  0.00    +0.137 C 
ATOM     65  CG2 THR A   4      -1.120  -1.026  14.393  0.00  0.00    +0.034 C 
BRANCH  64  66
ATOM     66  OG1 THR A   4      -1.117   1.366  14.587  0.00  0.00    -0.382 OA
ATOM     67  HG1 THR A   4      -0.585   2.177  14.786  0.00  0.00    +0.210 HD
ENDBRANCH  64  66
ENDBRANCH  35  64
ENDBRANCH   1  35
TORSDOF 26
REMARK  Name = ../refined-set-2016/3dbu/3dbu_pocket.pdb
REMARK  160 active torsions:
REMARK  status: ('A' for Active; 'I' for Inactive)
REMARK    1  A    between atoms: _1  and  _3
REMARK    2  A    between atoms: _3  and  _4
REMARK    3  A    between atoms: _3  and  _6
REMARK    4  A    between atoms: _6  and  _7
REMARK    5  A    between atoms: _17  and  _19
REMARK    6  A    between atoms: _19  and  _20
REMARK    7  A    between atoms: _19  and  _22
REMARK    8  A    between atoms: _22  and  _23
REMARK    9  A    between atoms: _28  and  _29
REMARK   10  A    between atoms: _31  and  _33
REMARK   11  A    between atoms: _33  and  _34
REMARK   12  A    between atoms: _33  and  _36
REMARK   13  A    between atoms: _36  and  _37
REMARK   14  A    between atoms: _40  and  _41
REMARK   15  A    between atoms: _46  and  _48
REMARK   16  A    between atoms: _48  and  _49
REMARK   17  A    between atoms: _48  and  _51
REMARK   18  A    between atoms: _51  and  _52
REMARK   19  A    between atoms: _57  and  _59
REMARK   20  A    between atoms: _59  and  _60
REMARK   21  A    between atoms: _59  and  _62
REMARK   22  A    between atoms: _62  and  _63
REMARK   23  A    between atoms: _68  and  _70
REMARK   24  A    between atoms: _70  and  _71
REMARK   25  A    between atoms: _70  and  _73
REMARK   26  A    between atoms: _73  and  _74
REMARK   27  A    between atoms: _76  and  _78
REMARK   28  A    between atoms: _78  and  _79
REMARK   29  A    between atoms: _78  and  _81
REMARK   30  A    between atoms: _81  and  _82
REMARK   31  A    between atoms: _82  and  _83
REMARK   32  A    between atoms: _88  and  _90
REMARK   33  A    between atoms: _90  and  _91
REMARK   34  A    between atoms: _90  and  _93
REMARK   35  A    between atoms: _93  and  _94
REMARK   36  A    between atoms: _94  and  _95
REMARK   37  A    between atoms: _98  and  _100
REMARK   38  A    between atoms: _100  and  _101
REMARK   39  A    between atoms: _100  and  _103
REMARK   40  A    between atoms: _103  and  _104
REMARK   41  A    between atoms: _107  and  _109
REMARK   42  A    between atoms: _109  and  _110
REMARK   43  A    between atoms: _109  and  _112
REMARK   44  A    between atoms: _112  and  _113
REMARK   45  A    between atoms: _113  and  _114
REMARK   46  A    between atoms: _119  and  _121
REMARK   47  A    between atoms: _121  and  _122
REMARK   48  A    between atoms: _121  and  _124
REMARK   49  A    between atoms: _124  and  _125
REMARK   50  A    between atoms: _131  and  _133
REMARK   51  A    between atoms: _144  and  _147
REMARK   52  A    between atoms: _147  and  _148
REMARK   53  A    between atoms: _156  and  _157
REMARK   54  A    between atoms: _165  and  _167
REMARK   55  A    between atoms: _167  and  _168
REMARK   56  A    between atoms: _167  and  _170
REMARK   57  A    between atoms: _170  and  _171
REMARK   58  A    between atoms: _171  and  _172
REMARK   59  A    between atoms: _175  and  _177
REMARK   60  A    between atoms: _177  and  _178
REMARK   61  A    between atoms: _177  and  _180
REMARK   62  A    between atoms: _180  and  _181
REMARK   63  A    between atoms: _186  and  _188
REMARK   64  A    between atoms: _188  and  _189
REMARK   65  A    between atoms: _188  and  _191
REMARK   66  A    between atoms: _191  and  _192
REMARK   67  A    between atoms: _192  and  _193
REMARK   68  A    between atoms: _196  and  _198
REMARK   69  A    between atoms: _198  and  _199
REMARK   70  A    between atoms: _198  and  _201
REMARK   71  A    between atoms: _201  and  _202
REMARK   72  A    between atoms: _205  and  _207
REMARK   73  A    between atoms: _207  and  _208
REMARK   74  A    between atoms: _207  and  _210
REMARK   75  A    between atoms: _210  and  _211
REMARK   76  A    between atoms: _212  and  ZN_439
REMARK   77  A    between atoms: _216  and  _218
REMARK   78  A    between atoms: _218  and  _219
REMARK   79  A    between atoms: _218  and  _221
REMARK   80  A    between atoms: _221  and  _222
REMARK   81  A    between atoms: _225  and  _227
REMARK   82  A    between atoms: _227  and  _228
REMARK   83  A    between atoms: _227  and  _230
REMARK   84  A    between atoms: _233  and  _235
REMARK   85  A    between atoms: _235  and  _236
REMARK   86  A    between atoms: _235  and  _238
REMARK   87  A    between atoms: _238  and  _239
REMARK   88  A    between atoms: _244  and  _246
REMARK   89  A    between atoms: _246  and  _247
REMARK   90  A    between atoms: _246  and  _249
REMARK   91  A    between atoms: _249  and  _250
REMARK   92  A    between atoms: _256  and  _258
REMARK   93  A    between atoms: _258  and  _259
REMARK   94  A    between atoms: _261  and  _263
REMARK   95  A    between atoms: _263  and  _264
REMARK   96  A    between atoms: _263  and  _266
REMARK   97  A    between atoms: _269  and  _271
REMARK   98  A    between atoms: _271  and  _272
REMARK   99  A    between atoms: _271  and  _274
REMARK  100  A    between atoms: _274  and  _275
REMARK  101  A    between atoms: _275  and  _276
REMARK  102  A    between atoms: _281  and  _283
REMARK  103  A    between atoms: _283  and  _284
REMARK  104  A    between atoms: _283  and  _286
REMARK  105  A    between atoms: _286  and  _287
REMARK  106  A    between atoms: _290  and  _292
REMARK  107  A    between atoms: _292  and  _293
REMARK  108  A    between atoms: _296  and  _298
REMARK  109  A    between atoms: _298  and  _299
REMARK  110  A    between atoms: _298  and  _301
REMARK  111  A    between atoms: _304  and  _306
REMARK  112  A    between atoms: _306  and  _307
REMARK  113  A    between atoms: _306  and  _309
REMARK  114  A    between atoms: _309  and  _310
REMARK  115  A    between atoms: _313  and  _315
REMARK  116  A    between atoms: _315  and  _316
REMARK  117  A    between atoms: _315  and  _318
REMARK  118  A    between atoms: _318  and  _319
REMARK  119  A    between atoms: _321  and  _323
REMARK  120  A    between atoms: _323  and  _324
REMARK  121  A    between atoms: _323  and  _326
REMARK  122  A    between atoms: _326  and  _327
REMARK  123  A    between atoms: _330  and  _332
REMARK  124  A    between atoms: _332  and  _333
REMARK  125  A    between atoms: _332  and  _335
REMARK  126  A    between atoms: _335  and  _336
REMARK  127  A    between atoms: _339  and  _341
REMARK  128  A    between atoms: _341  and  _342
REMARK  129  A    between atoms: _341  and  _344
REMARK  130  A    between atoms: _344  and  _345
REMARK  131  A    between atoms: _349  and  _350
REMARK  132  A    between atoms: _356  and  _357
REMARK  133  A    between atoms: _362  and  _364
REMARK  134  A    between atoms: _364  and  _365
REMARK  135  A    between atoms: _364  and  _367
REMARK  136  A    between atoms: _367  and  _368
REMARK  137  A    between atoms: _371  and  _373
REMARK  138  A    between atoms: _373  and  _374
REMARK  139  A    between atoms: _373  and  _376
REMARK  140  A    between atoms: _376  and  _377
REMARK  141  A    between atoms: _380  and  _382
REMARK  142  A    between atoms: _382  and  _383
REMARK  143  A    between atoms: _382  and  _385
REMARK  144  A    between atoms: _387  and  _389
REMARK  145  A    between atoms: _389  and  _390
REMARK  146  A    between atoms: _389  and  _392
REMARK  147  A    between atoms: _395  and  _397
REMARK  148  A    between atoms: _397  and  _398
REMARK  149  A    between atoms: _397  and  _400
REMARK  150  A    between atoms: _400  and  _401
REMARK  151  A    between atoms: _411  and  _413
REMARK  152  A    between atoms: _413  and  _414
REMARK  153  A    between atoms: _413  and  _416
REMARK  154  A    between atoms: _416  and  _417
REMARK  155  A    between atoms: _422  and  _424
REMARK  156  A    between atoms: _424  and  _425
REMARK  157  A    between atoms: _424  and  _427
REMARK  158  A    between atoms: _427  and  _428
REMARK  159  A    between atoms: _428  and  _429
REMARK  160  A    between atoms: _429  and  _430
REMARK                            x       y       z     vdW  Elec       q    Type
REMARK                         _______ _______ _______ _____ _____    ______ ____
ROOT
ATOM      1  C   CYS A   1      -5.854   7.672  24.038  0.00  0.00    +0.239 C 
ATOM      2  N   VAL A   2      -6.001   6.372  24.319  0.00  0.00    -0.298 N 
ATOM      3  H   VAL A   2      -5.231   5.857  24.791  0.00  0.00    +0.150 HD
ATOM      4  O   CYS A   1      -6.795   8.350  23.650  0.00  0.00    -0.274 OA
ENDROOT
BRANCH   1   5
ATOM      5  CA  CYS A   1      -4.488   8.320  24.209  0.00  0.00    +0.156 C 
BRANCH   5   6
ATOM      6  N   CYS A   1      -3.458   7.299  24.310  0.00  0.00    -0.237 NA
ATOM      7  H   CYS A   1      -3.423   6.550  23.589  0.00  0.00    +0.142 HD
ENDBRANCH   5   6
BRANCH   5   8
ATOM      8  CB  CYS A   1      -4.172   9.230  23.002  0.00  0.00    +0.095 C 
ATOM      9  SG  CYS A   1      -4.130   8.274  21.443  0.00  0.00    -0.080 S 
ENDBRANCH   5   8
ENDBRANCH   1   5
BRANCH   2  10
ATOM     10  CA  VAL A   2      -7.242   5.665  23.966  0.00  0.00    +0.137 C 
BRANCH  10  11
ATOM     11  CB  VAL A   2      -6.938   4.427  23.089  0.00  0.00    +0.026 C 
ATOM     12  CG2 VAL A   2      -8.205   3.682  22.682  0.00  0.00    +0.002 C 
ATOM     13  CG1 VAL A   2      -6.204   4.838  21.822  0.00  0.00    +0.002 C 
ENDBRANCH  10  11
BRANCH  10  14
ATOM     14  C   VAL A   2      -8.013   5.194  25.180  0.00  0.00    +0.227 C 
ATOM     15  O   VAL A   2      -7.451   4.588  26.104  0.00  0.00    -0.286 OA
ENDBRANCH  10  14
ENDBRANCH   2  10
TORSDOF 6
REMARK  Name = ../refined-set-2016/3dbu/3dbu_pocket.pdb
REMARK  160 active torsions:
REMARK  status: ('A' for Active; 'I' for Inactive)
REMARK    1  A    between atoms: _1  and  _3
REMARK    2  A    between atoms: _3  and  _4
REMARK    3  A    between atoms: _3  and  _6
REMARK    4  A    between atoms: _6  and  _7
REMARK    5  A    between atoms: _17  and  _19
REMARK    6  A    between atoms: _19  and  _20
REMARK    7  A    between atoms: _19  and  _22
REMARK    8  A    between atoms: _22  and  _23
REMARK    9  A    between atoms: _28  and  _29
REMARK   10  A    between atoms: _31  and  _33
REMARK   11  A    between atoms: _33  and  _34
REMARK   12  A    between atoms: _33  and  _36
REMARK   13  A    between atoms: _36  and  _37
REMARK   14  A    between atoms: _40  and  _41
REMARK   15  A    between atoms: _46  and  _48
REMARK   16  A    between atoms: _48  and  _49
REMARK   17  A    between atoms: _48  and  _51
REMARK   18  A    between atoms: _51  and  _52
REMARK   19  A    between atoms: _57  and  _59
REMARK   20  A    between atoms: _59  and  _60
REMARK   21  A    between atoms: _59  and  _62
REMARK   22  A    between atoms: _62  and  _63
REMARK   23  A    between atoms: _68  and  _70
REMARK   24  A    between atoms: _70  and  _71
REMARK   25  A    between atoms: _70  and  _73
REMARK   26  A    between atoms: _73  and  _74
REMARK   27  A    between atoms: _76  and  _78
REMARK   28  A    between atoms: _78  and  _79
REMARK   29  A    between atoms: _78  and  _81
REMARK   30  A    between atoms: _81  and  _82
REMARK   31  A    between atoms: _82  and  _83
REMARK   32  A    between atoms: _88  and  _90
REMARK   33  A    between atoms: _90  and  _91
REMARK   34  A    between atoms: _90  and  _93
REMARK   35  A    between atoms: _93  and  _94
REMARK   36  A    between atoms: _94  and  _95
REMARK   37  A    between atoms: _98  and  _100
REMARK   38  A    between atoms: _100  and  _101
REMARK   39  A    between atoms: _100  and  _103
REMARK   40  A    between atoms: _103  and  _104
REMARK   41  A    between atoms: _107  and  _109
REMARK   42  A    between atoms: _109  and  _110
REMARK   43  A    between atoms: _109  and  _112
REMARK   44  A    between atoms: _112  and  _113
REMARK   45  A    between atoms: _113  and  _114
REMARK   46  A    between atoms: _119  and  _121
REMARK   47  A    between atoms: _121  and  _122
REMARK   48  A    between atoms: _121  and  _124
REMARK   49  A    between atoms: _124  and  _125
REMARK   50  A    between atoms: _131  and  _133
REMARK   51  A    between atoms: _144  and  _147
REMARK   52  A    between atoms: _147  and  _148
REMARK   53  A    between atoms: _156  and  _157
REMARK   54  A    between atoms: _165  and  _167
REMARK   55  A    between atoms: _167  and  _168
REMARK   56  A    between atoms: _167  and  _170
REMARK   57  A    between atoms: _170  and  _171
REMARK   58  A    between atoms: _171  and  _172
REMARK   59  A    between atoms: _175  and  _177
REMARK   60  A    between atoms: _177  and  _178
REMARK   61  A    between atoms: _177  and  _180
REMARK   62  A    between atoms: _180  and  _181
REMARK   63  A    between atoms: _186  and  _188
REMARK   64  A    between atoms: _188  and  _189
REMARK   65  A    between atoms: _188  and  _191
REMARK   66  A    between atoms: _191  and  _192
REMARK   67  A    between atoms: _192  and  _193
REMARK   68  A    between atoms: _196  and  _198
REMARK   69  A    between atoms: _198  and  _199
REMARK   70  A    between atoms: _198  and  _201
REMARK   71  A    between atoms: _201  and  _202
REMARK   72  A    between atoms: _205  and  _207
REMARK   73  A    between atoms: _207  and  _208
REMARK   74  A    between atoms: _207  and  _210
REMARK   75  A    between atoms: _210  and  _211
REMARK   76  A    between atoms: _212  and  ZN_439
REMARK   77  A    between atoms: _216  and  _218
REMARK   78  A    between atoms: _218  and  _219
REMARK   79  A    between atoms: _218  and  _221
REMARK   80  A    between atoms: _221  and  _222
REMARK   81  A    between atoms: _225  and  _227
REMARK   82  A    between atoms: _227  and  _228
REMARK   83  A    between atoms: _227  and  _230
REMARK   84  A    between atoms: _233  and  _235
REMARK   85  A    between atoms: _235  and  _236
REMARK   86  A    between atoms: _235  and  _238
REMARK   87  A    between atoms: _238  and  _239
REMARK   88  A    between atoms: _244  and  _246
REMARK   89  A    between atoms: _246  and  _247
REMARK   90  A    between atoms: _246  and  _249
REMARK   91  A    between atoms: _249  and  _250
REMARK   92  A    between atoms: _256  and  _258
REMARK   93  A    between atoms: _258  and  _259
REMARK   94  A    between atoms: _261  and  _263
REMARK   95  A    between atoms: _263  and  _264
REMARK   96  A    between atoms: _263  and  _266
REMARK   97  A    between atoms: _269  and  _271
REMARK   98  A    between atoms: _271  and  _272
REMARK   99  A    between atoms: _271  and  _274
REMARK  100  A    between atoms: _274  and  _275
REMARK  101  A    between atoms: _275  and  _276
REMARK  102  A    between atoms: _281  and  _283
REMARK  103  A    between atoms: _283  and  _284
REMARK  104  A    between atoms: _283  and  _286
REMARK  105  A    between atoms: _286  and  _287
REMARK  106  A    between atoms: _290  and  _292
REMARK  107  A    between atoms: _292  and  _293
REMARK  108  A    between atoms: _296  and  _298
REMARK  109  A    between atoms: _298  and  _299
REMARK  110  A    between atoms: _298  and  _301
REMARK  111  A    between atoms: _304  and  _306
REMARK  112  A    between atoms: _306  and  _307
REMARK  113  A    between atoms: _306  and  _309
REMARK  114  A    between atoms: _309  and  _310
REMARK  115  A    between atoms: _313  and  _315
REMARK  116  A    between atoms: _315  and  _316
REMARK  117  A    between atoms: _315  and  _318
REMARK  118  A    between atoms: _318  and  _319
REMARK  119  A    between atoms: _321  and  _323
REMARK  120  A    between atoms: _323  and  _324
REMARK  121  A    between atoms: _323  and  _326
REMARK  122  A    between atoms: _326  and  _327
REMARK  123  A    between atoms: _330  and  _332
REMARK  124  A    between atoms: _332  and  _333
REMARK  125  A    between atoms: _332  and  _335
REMARK  126  A    between atoms: _335  and  _336
REMARK  127  A    between atoms: _339  and  _341
REMARK  128  A    between atoms: _341  and  _342
REMARK  129  A    between atoms: _341  and  _344
REMARK  130  A    between atoms: _344  and  _345
REMARK  131  A    between atoms: _349  and  _350
REMARK  132  A    between atoms: _356  and  _357
REMARK  133  A    between atoms: _362  and  _364
REMARK  134  A    between atoms: _364  and  _365
REMARK  135  A    between atoms: _364  and  _367
REMARK  136  A    between atoms: _367  and  _368
REMARK  137  A    between atoms: _371  and  _373
REMARK  138  A    between atoms: _373  and  _374
REMARK  139  A    between atoms: _373  and  _376
REMARK  140  A    between atoms: _376  and  _377
REMARK  141  A    between atoms: _380  and  _382
REMARK  142  A    between atoms: _382  and  _383
REMARK  143  A    between atoms: _382  and  _385
REMARK  144  A    between atoms: _387  and  _389
REMARK  145  A    between atoms: _389  and  _390
REMARK  146  A    between atoms: _389  and  _392
REMARK  147  A    between atoms: _395  and  _397
REMARK  148  A    between atoms: _397  and  _398
REMARK  149  A    between atoms: _397  and  _400
REMARK  150  A    between atoms: _400  and  _401
REMARK  151  A    between atoms: _411  and  _413
REMARK  152  A    between atoms: _413  and  _414
REMARK  153  A    between atoms: _413  and  _416
REMARK  154  A    between atoms: _416  and  _417
REMARK  155  A    between atoms: _422  and  _424
REMARK  156  A    between atoms: _424  and  _425
REMARK  157  A    between atoms: _424  and  _427
REMARK  158  A    between atoms: _427  and  _428
REMARK  159  A    between atoms: _428  and  _429
REMARK  160  A    between atoms: _429  and  _430
REMARK                            x       y       z     vdW  Elec       q    Type
REMARK                         _______ _______ _______ _____ _____    ______ ____
ROOT
ATOM      1  CG  TRP A   1      -8.787   0.145  24.184  0.00  0.00    -0.002 A 
ATOM      2  CD1 TRP A   1      -7.570   0.714  24.399  0.00  0.00    +0.068 A 
ATOM      3  NE1 TRP A   1      -6.814   0.644  23.243  0.00  0.00    -0.352 N 
ATOM      4  HE1 TRP A   1      -5.843   1.001  23.133  0.00  0.00    +0.166 HD
ATOM      5  CE2 TRP A   1      -7.550   0.029  22.267  0.00  0.00    +0.056 A 
ATOM      6  CZ2 TRP A   1      -7.200  -0.258  20.938  0.00  0.00    +0.017 A 
ATOM      7  CH2 TRP A   1      -8.157  -0.891  20.188  0.00  0.00    +0.001 A 
ATOM      8  CZ3 TRP A   1      -9.401  -1.229  20.716  0.00  0.00    +0.000 A 
ATOM      9  CE3 TRP A   1      -9.746  -0.945  22.025  0.00  0.00    +0.001 A 
ATOM     10  CD2 TRP A   1      -8.791  -0.301  22.813  0.00  0.00    +0.013 A 
ENDROOT
BRANCH   1  11
ATOM     11  CB  TRP A   1      -9.947  -0.014  25.134  0.00  0.00    +0.053 C 
BRANCH  11  12
ATOM     12  CA  TRP A   1     -10.927   1.172  24.963  0.00  0.00    +0.137 C 
BRANCH  12  13
ATOM     13  N   TRP A   1     -10.423   2.359  25.650  0.00  0.00    -0.239 NA
ATOM     14  H   TRP A   1      -9.777   2.252  26.458  0.00  0.00    +0.142 HD
ENDBRANCH  12  13
BRANCH  12  15
ATOM     15  C   TRP A   1     -12.282   0.743  25.491  0.00  0.00    +0.224 C 
ATOM     16  O   TRP A   1     -12.480   0.685  26.709  0.00  0.00    -0.287 OA
ENDBRANCH  12  15
ENDBRANCH  11  12
ENDBRANCH   1  11
TORSDOF 4
REMARK  Name = ../refined-set-2016/3dbu/3dbu_pocket.pdb
REMARK  160 active torsions:
REMARK  status: ('A' for Active; 'I' for Inactive)
REMARK    1  A    between atoms: _1  and  _3
REMARK    2  A    between atoms: _3  and  _4
REMARK    3  A    between atoms: _3  and  _6
REMARK    4  A    between atoms: _6  and  _7
REMARK    5  A    between atoms: _17  and  _19
REMARK    6  A    between atoms: _19  and  _20
REMARK    7  A    between atoms: _19  and  _22
REMARK    8  A    between atoms: _22  and  _23
REMARK    9  A    between atoms: _28  and  _29
REMARK   10  A    between atoms: _31  and  _33
REMARK   11  A    between atoms: _33  and  _34
REMARK   12  A    between atoms: _33  and  _36
REMARK   13  A    between atoms: _36  and  _37
REMARK   14  A    between atoms: _40  and  _41
REMARK   15  A    between atoms: _46  and  _48
REMARK   16  A    between atoms: _48  and  _49
REMARK   17  A    between atoms: _48  and  _51
REMARK   18  A    between atoms: _51  and  _52
REMARK   19  A    between atoms: _57  and  _59
REMARK   20  A    between atoms: _59  and  _60
REMARK   21  A    between atoms: _59  and  _62
REMARK   22  A    between atoms: _62  and  _63
REMARK   23  A    between atoms: _68  and  _70
REMARK   24  A    between atoms: _70  and  _71
REMARK   25  A    between atoms: _70  and  _73
REMARK   26  A    between atoms: _73  and  _74
REMARK   27  A    between atoms: _76  and  _78
REMARK   28  A    between atoms: _78  and  _79
REMARK   29  A    between atoms: _78  and  _81
REMARK   30  A    between atoms: _81  and  _82
REMARK   31  A    between atoms: _82  and  _83
REMARK   32  A    between atoms: _88  and  _90
REMARK   33  A    between atoms: _90  and  _91
REMARK   34  A    between atoms: _90  and  _93
REMARK   35  A    between atoms: _93  and  _94
REMARK   36  A    between atoms: _94  and  _95
REMARK   37  A    between atoms: _98  and  _100
REMARK   38  A    between atoms: _100  and  _101
REMARK   39  A    between atoms: _100  and  _103
REMARK   40  A    between atoms: _103  and  _104
REMARK   41  A    between atoms: _107  and  _109
REMARK   42  A    between atoms: _109  and  _110
REMARK   43  A    between atoms: _109  and  _112
REMARK   44  A    between atoms: _112  and  _113
REMARK   45  A    between atoms: _113  and  _114
REMARK   46  A    between atoms: _119  and  _121
REMARK   47  A    between atoms: _121  and  _122
REMARK   48  A    between atoms: _121  and  _124
REMARK   49  A    between atoms: _124  and  _125
REMARK   50  A    between atoms: _131  and  _133
REMARK   51  A    between atoms: _144  and  _147
REMARK   52  A    between atoms: _147  and  _148
REMARK   53  A    between atoms: _156  and  _157
REMARK   54  A    between atoms: _165  and  _167
REMARK   55  A    between atoms: _167  and  _168
REMARK   56  A    between atoms: _167  and  _170
REMARK   57  A    between atoms: _170  and  _171
REMARK   58  A    between atoms: _171  and  _172
REMARK   59  A    between atoms: _175  and  _177
REMARK   60  A    between atoms: _177  and  _178
REMARK   61  A    between atoms: _177  and  _180
REMARK   62  A    between atoms: _180  and  _181
REMARK   63  A    between atoms: _186  and  _188
REMARK   64  A    between atoms: _188  and  _189
REMARK   65  A    between atoms: _188  and  _191
REMARK   66  A    between atoms: _191  and  _192
REMARK   67  A    between atoms: _192  and  _193
REMARK   68  A    between atoms: _196  and  _198
REMARK   69  A    between atoms: _198  and  _199
REMARK   70  A    between atoms: _198  and  _201
REMARK   71  A    between atoms: _201  and  _202
REMARK   72  A    between atoms: _205  and  _207
REMARK   73  A    between atoms: _207  and  _208
REMARK   74  A    between atoms: _207  and  _210
REMARK   75  A    between atoms: _210  and  _211
REMARK   76  A    between atoms: _212  and  ZN_439
REMARK   77  A    between atoms: _216  and  _218
REMARK   78  A    between atoms: _218  and  _219
REMARK   79  A    between atoms: _218  and  _221
REMARK   80  A    between atoms: _221  and  _222
REMARK   81  A    between atoms: _225  and  _227
REMARK   82  A    between atoms: _227  and  _228
REMARK   83  A    between atoms: _227  and  _230
REMARK   84  A    between atoms: _233  and  _235
REMARK   85  A    between atoms: _235  and  _236
REMARK   86  A    between atoms: _235  and  _238
REMARK   87  A    between atoms: _238  and  _239
REMARK   88  A    between atoms: _244  and  _246
REMARK   89  A    between atoms: _246  and  _247
REMARK   90  A    between atoms: _246  and  _249
REMARK   91  A    between atoms: _249  and  _250
REMARK   92  A    between atoms: _256  and  _258
REMARK   93  A    between atoms: _258  and  _259
REMARK   94  A    between atoms: _261  and  _263
REMARK   95  A    between atoms: _263  and  _264
REMARK   96  A    between atoms: _263  and  _266
REMARK   97  A    between atoms: _269  and  _271
REMARK   98  A    between atoms: _271  and  _272
REMARK   99  A    between atoms: _271  and  _274
REMARK  100  A    between atoms: _274  and  _275
REMARK  101  A    between atoms: _275  and  _276
REMARK  102  A    between atoms: _281  and  _283
REMARK  103  A    between atoms: _283  and  _284
REMARK  104  A    between atoms: _283  and  _286
REMARK  105  A    between atoms: _286  and  _287
REMARK  106  A    between atoms: _290  and  _292
REMARK  107  A    between atoms: _292  and  _293
REMARK  108  A    between atoms: _296  and  _298
REMARK  109  A    between atoms: _298  and  _299
REMARK  110  A    between atoms: _298  and  _301
REMARK  111  A    between atoms: _304  and  _306
REMARK  112  A    between atoms: _306  and  _307
REMARK  113  A    between atoms: _306  and  _309
REMARK  114  A    between atoms: _309  and  _310
REMARK  115  A    between atoms: _313  and  _315
REMARK  116  A    between atoms: _315  and  _316
REMARK  117  A    between atoms: _315  and  _318
REMARK  118  A    between atoms: _318  and  _319
REMARK  119  A    between atoms: _321  and  _323
REMARK  120  A    between atoms: _323  and  _324
REMARK  121  A    between atoms: _323  and  _326
REMARK  122  A    between atoms: _326  and  _327
REMARK  123  A    between atoms: _330  and  _332
REMARK  124  A    between atoms: _332  and  _333
REMARK  125  A    between atoms: _332  and  _335
REMARK  126  A    between atoms: _335  and  _336
REMARK  127  A    between atoms: _339  and  _341
REMARK  128  A    between atoms: _341  and  _342
REMARK  129  A    between atoms: _341  and  _344
REMARK  130  A    between atoms: _344  and  _345
REMARK  131  A    between atoms: _349  and  _350
REMARK  132  A    between atoms: _356  and  _357
REMARK  133  A    between atoms: _362  and  _364
REMARK  134  A    between atoms: _364  and  _365
REMARK  135  A    between atoms: _364  and  _367
REMARK  136  A    between atoms: _367  and  _368
REMARK  137  A    between atoms: _371  and  _373
REMARK  138  A    between atoms: _373  and  _374
REMARK  139  A    between atoms: _373  and  _376
REMARK  140  A    between atoms: _376  and  _377
REMARK  141  A    between atoms: _380  and  _382
REMARK  142  A    between atoms: _382  and  _383
REMARK  143  A    between atoms: _382  and  _385
REMARK  144  A    between atoms: _387  and  _389
REMARK  145  A    between atoms: _389  and  _390
REMARK  146  A    between atoms: _389  and  _392
REMARK  147  A    between atoms: _395  and  _397
REMARK  148  A    between atoms: _397  and  _398
REMARK  149  A    between atoms: _397  and  _400
REMARK  150  A    between atoms: _400  and  _401
REMARK  151  A    between atoms: _411  and  _413
REMARK  152  A    between atoms: _413  and  _414
REMARK  153  A    between atoms: _413  and  _416
REMARK  154  A    between atoms: _416  and  _417
REMARK  155  A    between atoms: _422  and  _424
REMARK  156  A    between atoms: _424  and  _425
REMARK  157  A    between atoms: _424  and  _427
REMARK  158  A    between atoms: _427  and  _428
REMARK  159  A    between atoms: _428  and  _429
REMARK  160  A    between atoms: _429  and  _430
REMARK                            x       y       z     vdW  Elec       q    Type
REMARK                         _______ _______ _______ _____ _____    ______ ____
ROOT
ATOM      1  CB  ASN A   1      -2.047  -7.251  10.572  0.00  0.00    +0.110 C 
ENDROOT
BRANCH   1   2
ATOM      2  CG  ASN A   1      -3.516  -7.449  10.314  0.00  0.00    +0.221 C 
ATOM      3  OD1 ASN A   1      -4.211  -8.309  10.866  0.00  0.00    -0.275 OA
ATOM      4  ND2 ASN A   1      -4.076  -6.605   9.429  0.00  0.00    -0.329 N 
ATOM      5 HD21 ASN A   1      -5.090  -6.678   9.211  0.00  0.00    +0.145 HD
ATOM      6 HD22 ASN A   1      -3.495  -5.880   8.962  0.00  0.00    +0.145 HD
ENDBRANCH   1   2
BRANCH   1   7
ATOM      7  CA  ASN A   1      -1.467  -8.124  11.690  0.00  0.00    +0.142 C 
BRANCH   7   8
ATOM      8  N   ASN A   1      -1.797  -9.518  11.458  0.00  0.00    -0.239 NA
ATOM      9  H   ASN A   1      -2.727  -9.764  11.063  0.00  0.00    +0.142 HD
ENDBRANCH   7   8
BRANCH   7  10
ATOM     10  C   ASN A   1      -2.010  -7.691  13.052  0.00  0.00    +0.225 C 
ATOM     11  O   ASN A   1      -2.686  -6.670  13.181  0.00  0.00    -0.287 OA
ENDBRANCH   7  10
ENDBRANCH   1   7
TORSDOF 4
REMARK  Name = ../refined-set-2016/3dbu/3dbu_pocket.pdb
REMARK  160 active torsions:
REMARK  status: ('A' for Active; 'I' for Inactive)
REMARK    1  A    between atoms: _1  and  _3
REMARK    2  A    between atoms: _3  and  _4
REMARK    3  A    between atoms: _3  and  _6
REMARK    4  A    between atoms: _6  and  _7
REMARK    5  A    between atoms: _17  and  _19
REMARK    6  A    between atoms: _19  and  _20
REMARK    7  A    between atoms: _19  and  _22
REMARK    8  A    between atoms: _22  and  _23
REMARK    9  A    between atoms: _28  and  _29
REMARK   10  A    between atoms: _31  and  _33
REMARK   11  A    between atoms: _33  and  _34
REMARK   12  A    between atoms: _33  and  _36
REMARK   13  A    between atoms: _36  and  _37
REMARK   14  A    between atoms: _40  and  _41
REMARK   15  A    between atoms: _46  and  _48
REMARK   16  A    between atoms: _48  and  _49
REMARK   17  A    between atoms: _48  and  _51
REMARK   18  A    between atoms: _51  and  _52
REMARK   19  A    between atoms: _57  and  _59
REMARK   20  A    between atoms: _59  and  _60
REMARK   21  A    between atoms: _59  and  _62
REMARK   22  A    between atoms: _62  and  _63
REMARK   23  A    between atoms: _68  and  _70
REMARK   24  A    between atoms: _70  and  _71
REMARK   25  A    between atoms: _70  and  _73
REMARK   26  A    between atoms: _73  and  _74
REMARK   27  A    between atoms: _76  and  _78
REMARK   28  A    between atoms: _78  and  _79
REMARK   29  A    between atoms: _78  and  _81
REMARK   30  A    between atoms: _81  and  _82
REMARK   31  A    between atoms: _82  and  _83
REMARK   32  A    between atoms: _88  and  _90
REMARK   33  A    between atoms: _90  and  _91
REMARK   34  A    between atoms: _90  and  _93
REMARK   35  A    between atoms: _93  and  _94
REMARK   36  A    between atoms: _94  and  _95
REMARK   37  A    between atoms: _98  and  _100
REMARK   38  A    between atoms: _100  and  _101
REMARK   39  A    between atoms: _100  and  _103
REMARK   40  A    between atoms: _103  and  _104
REMARK   41  A    between atoms: _107  and  _109
REMARK   42  A    between atoms: _109  and  _110
REMARK   43  A    between atoms: _109  and  _112
REMARK   44  A    between atoms: _112  and  _113
REMARK   45  A    between atoms: _113  and  _114
REMARK   46  A    between atoms: _119  and  _121
REMARK   47  A    between atoms: _121  and  _122
REMARK   48  A    between atoms: _121  and  _124
REMARK   49  A    between atoms: _124  and  _125
REMARK   50  A    between atoms: _131  and  _133
REMARK   51  A    between atoms: _144  and  _147
REMARK   52  A    between atoms: _147  and  _148
REMARK   53  A    between atoms: _156  and  _157
REMARK   54  A    between atoms: _165  and  _167
REMARK   55  A    between atoms: _167  and  _168
REMARK   56  A    between atoms: _167  and  _170
REMARK   57  A    between atoms: _170  and  _171
REMARK   58  A    between atoms: _171  and  _172
REMARK   59  A    between atoms: _175  and  _177
REMARK   60  A    between atoms: _177  and  _178
REMARK   61  A    between atoms: _177  and  _180
REMARK   62  A    between atoms: _180  and  _181
REMARK   63  A    between atoms: _186  and  _188
REMARK   64  A    between atoms: _188  and  _189
REMARK   65  A    between atoms: _188  and  _191
REMARK   66  A    between atoms: _191  and  _192
REMARK   67  A    between atoms: _192  and  _193
REMARK   68  A    between atoms: _196  and  _198
REMARK   69  A    between atoms: _198  and  _199
REMARK   70  A    between atoms: _198  and  _201
REMARK   71  A    between atoms: _201  and  _202
REMARK   72  A    between atoms: _205  and  _207
REMARK   73  A    between atoms: _207  and  _208
REMARK   74  A    between atoms: _207  and  _210
REMARK   75  A    between atoms: _210  and  _211
REMARK   76  A    between atoms: _212  and  ZN_439
REMARK   77  A    between atoms: _216  and  _218
REMARK   78  A    between atoms: _218  and  _219
REMARK   79  A    between atoms: _218  and  _221
REMARK   80  A    between atoms: _221  and  _222
REMARK   81  A    between atoms: _225  and  _227
REMARK   82  A    between atoms: _227  and  _228
REMARK   83  A    between atoms: _227  and  _230
REMARK   84  A    between atoms: _233  and  _235
REMARK   85  A    between atoms: _235  and  _236
REMARK   86  A    between atoms: _235  and  _238
REMARK   87  A    between atoms: _238  and  _239
REMARK   88  A    between atoms: _244  and  _246
REMARK   89  A    between atoms: _246  and  _247
REMARK   90  A    between atoms: _246  and  _249
REMARK   91  A    between atoms: _249  and  _250
REMARK   92  A    between atoms: _256  and  _258
REMARK   93  A    between atoms: _258  and  _259
REMARK   94  A    between atoms: _261  and  _263
REMARK   95  A    between atoms: _263  and  _264
REMARK   96  A    between atoms: _263  and  _266
REMARK   97  A    between atoms: _269  and  _271
REMARK   98  A    between atoms: _271  and  _272
REMARK   99  A    between atoms: _271  and  _274
REMARK  100  A    between atoms: _274  and  _275
REMARK  101  A    between atoms: _275  and  _276
REMARK  102  A    between atoms: _281  and  _283
REMARK  103  A    between atoms: _283  and  _284
REMARK  104  A    between atoms: _283  and  _286
REMARK  105  A    between atoms: _286  and  _287
REMARK  106  A    between atoms: _290  and  _292
REMARK  107  A    between atoms: _292  and  _293
REMARK  108  A    between atoms: _296  and  _298
REMARK  109  A    between atoms: _298  and  _299
REMARK  110  A    between atoms: _298  and  _301
REMARK  111  A    between atoms: _304  and  _306
REMARK  112  A    between atoms: _306  and  _307
REMARK  113  A    between atoms: _306  and  _309
REMARK  114  A    between atoms: _309  and  _310
REMARK  115  A    between atoms: _313  and  _315
REMARK  116  A    between atoms: _315  and  _316
REMARK  117  A    between atoms: _315  and  _318
REMARK  118  A    between atoms: _318  and  _319
REMARK  119  A    between atoms: _321  and  _323
REMARK  120  A    between atoms: _323  and  _324
REMARK  121  A    between atoms: _323  and  _326
REMARK  122  A    between atoms: _326  and  _327
REMARK  123  A    between atoms: _330  and  _332
REMARK  124  A    between atoms: _332  and  _333
REMARK  125  A    between atoms: _332  and  _335
REMARK  126  A    between atoms: _335  and  _336
REMARK  127  A    between atoms: _339  and  _341
REMARK  128  A    between atoms: _341  and  _342
REMARK  129  A    between atoms: _341  and  _344
REMARK  130  A    between atoms: _344  and  _345
REMARK  131  A    between atoms: _349  and  _350
REMARK  132  A    between atoms: _356  and  _357
REMARK  133  A    between atoms: _362  and  _364
REMARK  134  A    between atoms: _364  and  _365
REMARK  135  A    between atoms: _364  and  _367
REMARK  136  A    between atoms: _367  and  _368
REMARK  137  A    between atoms: _371  and  _373
REMARK  138  A    between atoms: _373  and  _374
REMARK  139  A    between atoms: _373  and  _376
REMARK  140  A    between atoms: _376  and  _377
REMARK  141  A    between atoms: _380  and  _382
REMARK  142  A    between atoms: _382  and  _383
REMARK  143  A    between atoms: _382  and  _385
REMARK  144  A    between atoms: _387  and  _389
REMARK  145  A    between atoms: _389  and  _390
REMARK  146  A    between atoms: _389  and  _392
REMARK  147  A    between atoms: _395  and  _397
REMARK  148  A    between atoms: _397  and  _398
REMARK  149  A    between atoms: _397  and  _400
REMARK  150  A    between atoms: _400  and  _401
REMARK  151  A    between atoms: _411  and  _413
REMARK  152  A    between atoms: _413  and  _414
REMARK  153  A    between atoms: _413  and  _416
REMARK  154  A    between atoms: _416  and  _417
REMARK  155  A    between atoms: _422  and  _424
REMARK  156  A    between atoms: _424  and  _425
REMARK  157  A    between atoms: _424  and  _427
REMARK  158  A    between atoms: _427  and  _428
REMARK  159  A    between atoms: _428  and  _429
REMARK  160  A    between atoms: _429  and  _430
REMARK                            x       y       z     vdW  Elec       q    Type
REMARK                         _______ _______ _______ _____ _____    ______ ____
ROOT
ATOM      1  NE  ARG A   1       2.241  -3.677  21.172  0.00  0.00    +0.330 N 
ATOM      2  CZ  ARG A   1       2.426  -2.664  21.999  0.00  0.00    +0.000 C 
ATOM      3  NH2 ARG A   1       3.640  -2.438  22.509  0.00  0.00    +0.330 N 
ATOM      4 HH21 ARG A   1       3.790  -1.641  23.161  0.00  0.00    +0.000 HD
ATOM      5 HH22 ARG A   1       4.435  -3.059  22.254  0.00  0.00    +0.000 HD
ATOM      6  NH1 ARG A   1       1.415  -1.867  22.342  0.00  0.00    +0.330 N 
ATOM      7 HH11 ARG A   1       1.577  -1.073  22.994  0.00  0.00    +0.000 HD
ATOM      8 HH12 ARG A   1       0.464  -2.038  21.957  0.00  0.00    +0.000 HD
ATOM      9  HE  ARG A   1       3.074  -4.265  20.968  0.00  0.00    +0.000 HD
ENDROOT
BRANCH   1  10
ATOM     10  CD  ARG A   1       0.995  -4.065  20.511  0.00  0.00    +0.000 C 
BRANCH  10  11
ATOM     11  CG  ARG A   1       1.129  -5.472  19.914  0.00  0.00    +0.000 C 
BRANCH  11  12
ATOM     12  CB  ARG A   1       0.009  -5.729  18.913  0.00  0.00    +0.000 C 
BRANCH  12  13
ATOM     13  CA  ARG A   1      -0.098  -7.185  18.438  0.00  0.00    +0.000 C 
BRANCH  13  14
ATOM     14  N   ARG A   1      -1.134  -7.290  17.412  0.00  0.00    +0.000 NA
ATOM     15  H   ARG A   1      -1.985  -6.697  17.486  0.00  0.00    +0.000 HD
ENDBRANCH  13  14
BRANCH  13  16
ATOM     16  C   ARG A   1      -0.471  -8.069  19.621  0.00  0.00    +0.000 C 
ATOM     17  O   ARG A   1      -1.640  -8.115  19.986  0.00  0.00    +0.000 OA
ENDBRANCH  13  16
ENDBRANCH  12  13
ENDBRANCH  11  12
ENDBRANCH  10  11
ENDBRANCH   1  10
TORSDOF 6
REMARK  Name = ../refined-set-2016/3dbu/3dbu_pocket.pdb
REMARK  160 active torsions:
REMARK  status: ('A' for Active; 'I' for Inactive)
REMARK    1  A    between atoms: _1  and  _3
REMARK    2  A    between atoms: _3  and  _4
REMARK    3  A    between atoms: _3  and  _6
REMARK    4  A    between atoms: _6  and  _7
REMARK    5  A    between atoms: _17  and  _19
REMARK    6  A    between atoms: _19  and  _20
REMARK    7  A    between atoms: _19  and  _22
REMARK    8  A    between atoms: _22  and  _23
REMARK    9  A    between atoms: _28  and  _29
REMARK   10  A    between atoms: _31  and  _33
REMARK   11  A    between atoms: _33  and  _34
REMARK   12  A    between atoms: _33  and  _36
REMARK   13  A    between atoms: _36  and  _37
REMARK   14  A    between atoms: _40  and  _41
REMARK   15  A    between atoms: _46  and  _48
REMARK   16  A    between atoms: _48  and  _49
REMARK   17  A    between atoms: _48  and  _51
REMARK   18  A    between atoms: _51  and  _52
REMARK   19  A    between atoms: _57  and  _59
REMARK   20  A    between atoms: _59  and  _60
REMARK   21  A    between atoms: _59  and  _62
REMARK   22  A    between atoms: _62  and  _63
REMARK   23  A    between atoms: _68  and  _70
REMARK   24  A    between atoms: _70  and  _71
REMARK   25  A    between atoms: _70  and  _73
REMARK   26  A    between atoms: _73  and  _74
REMARK   27  A    between atoms: _76  and  _78
REMARK   28  A    between atoms: _78  and  _79
REMARK   29  A    between atoms: _78  and  _81
REMARK   30  A    between atoms: _81  and  _82
REMARK   31  A    between atoms: _82  and  _83
REMARK   32  A    between atoms: _88  and  _90
REMARK   33  A    between atoms: _90  and  _91
REMARK   34  A    between atoms: _90  and  _93
REMARK   35  A    between atoms: _93  and  _94
REMARK   36  A    between atoms: _94  and  _95
REMARK   37  A    between atoms: _98  and  _100
REMARK   38  A    between atoms: _100  and  _101
REMARK   39  A    between atoms: _100  and  _103
REMARK   40  A    between atoms: _103  and  _104
REMARK   41  A    between atoms: _107  and  _109
REMARK   42  A    between atoms: _109  and  _110
REMARK   43  A    between atoms: _109  and  _112
REMARK   44  A    between atoms: _112  and  _113
REMARK   45  A    between atoms: _113  and  _114
REMARK   46  A    between atoms: _119  and  _121
REMARK   47  A    between atoms: _121  and  _122
REMARK   48  A    between atoms: _121  and  _124
REMARK   49  A    between atoms: _124  and  _125
REMARK   50  A    between atoms: _131  and  _133
REMARK   51  A    between atoms: _144  and  _147
REMARK   52  A    between atoms: _147  and  _148
REMARK   53  A    between atoms: _156  and  _157
REMARK   54  A    between atoms: _165  and  _167
REMARK   55  A    between atoms: _167  and  _168
REMARK   56  A    between atoms: _167  and  _170
REMARK   57  A    between atoms: _170  and  _171
REMARK   58  A    between atoms: _171  and  _172
REMARK   59  A    between atoms: _175  and  _177
REMARK   60  A    between atoms: _177  and  _178
REMARK   61  A    between atoms: _177  and  _180
REMARK   62  A    between atoms: _180  and  _181
REMARK   63  A    between atoms: _186  and  _188
REMARK   64  A    between atoms: _188  and  _189
REMARK   65  A    between atoms: _188  and  _191
REMARK   66  A    between atoms: _191  and  _192
REMARK   67  A    between atoms: _192  and  _193
REMARK   68  A    between atoms: _196  and  _198
REMARK   69  A    between atoms: _198  and  _199
REMARK   70  A    between atoms: _198  and  _201
REMARK   71  A    between atoms: _201  and  _202
REMARK   72  A    between atoms: _205  and  _207
REMARK   73  A    between atoms: _207  and  _208
REMARK   74  A    between atoms: _207  and  _210
REMARK   75  A    between atoms: _210  and  _211
REMARK   76  A    between atoms: _212  and  ZN_439
REMARK   77  A    between atoms: _216  and  _218
REMARK   78  A    between atoms: _218  and  _219
REMARK   79  A    between atoms: _218  and  _221
REMARK   80  A    between atoms: _221  and  _222
REMARK   81  A    between atoms: _225  and  _227
REMARK   82  A    between atoms: _227  and  _228
REMARK   83  A    between atoms: _227  and  _230
REMARK   84  A    between atoms: _233  and  _235
REMARK   85  A    between atoms: _235  and  _236
REMARK   86  A    between atoms: _235  and  _238
REMARK   87  A    between atoms: _238  and  _239
REMARK   88  A    between atoms: _244  and  _246
REMARK   89  A    between atoms: _246  and  _247
REMARK   90  A    between atoms: _246  and  _249
REMARK   91  A    between atoms: _249  and  _250
REMARK   92  A    between atoms: _256  and  _258
REMARK   93  A    between atoms: _258  and  _259
REMARK   94  A    between atoms: _261  and  _263
REMARK   95  A    between atoms: _263  and  _264
REMARK   96  A    between atoms: _263  and  _266
REMARK   97  A    between atoms: _269  and  _271
REMARK   98  A    between atoms: _271  and  _272
REMARK   99  A    between atoms: _271  and  _274
REMARK  100  A    between atoms: _274  and  _275
REMARK  101  A    between atoms: _275  and  _276
REMARK  102  A    between atoms: _281  and  _283
REMARK  103  A    between atoms: _283  and  _284
REMARK  104  A    between atoms: _283  and  _286
REMARK  105  A    between atoms: _286  and  _287
REMARK  106  A    between atoms: _290  and  _292
REMARK  107  A    between atoms: _292  and  _293
REMARK  108  A    between atoms: _296  and  _298
REMARK  109  A    between atoms: _298  and  _299
REMARK  110  A    between atoms: _298  and  _301
REMARK  111  A    between atoms: _304  and  _306
REMARK  112  A    between atoms: _306  and  _307
REMARK  113  A    between atoms: _306  and  _309
REMARK  114  A    between atoms: _309  and  _310
REMARK  115  A    between atoms: _313  and  _315
REMARK  116  A    between atoms: _315  and  _316
REMARK  117  A    between atoms: _315  and  _318
REMARK  118  A    between atoms: _318  and  _319
REMARK  119  A    between atoms: _321  and  _323
REMARK  120  A    between atoms: _323  and  _324
REMARK  121  A    between atoms: _323  and  _326
REMARK  122  A    between atoms: _326  and  _327
REMARK  123  A    between atoms: _330  and  _332
REMARK  124  A    between atoms: _332  and  _333
REMARK  125  A    between atoms: _332  and  _335
REMARK  126  A    between atoms: _335  and  _336
REMARK  127  A    between atoms: _339  and  _341
REMARK  128  A    between atoms: _341  and  _342
REMARK  129  A    between atoms: _341  and  _344
REMARK  130  A    between atoms: _344  and  _345
REMARK  131  A    between atoms: _349  and  _350
REMARK  132  A    between atoms: _356  and  _357
REMARK  133  A    between atoms: _362  and  _364
REMARK  134  A    between atoms: _364  and  _365
REMARK  135  A    between atoms: _364  and  _367
REMARK  136  A    between atoms: _367  and  _368
REMARK  137  A    between atoms: _371  and  _373
REMARK  138  A    between atoms: _373  and  _374
REMARK  139  A    between atoms: _373  and  _376
REMARK  140  A    between atoms: _376  and  _377
REMARK  141  A    between atoms: _380  and  _382
REMARK  142  A    between atoms: _382  and  _383
REMARK  143  A    between atoms: _382  and  _385
REMARK  144  A    between atoms: _387  and  _389
REMARK  145  A    between atoms: _389  and  _390
REMARK  146  A    between atoms: _389  and  _392
REMARK  147  A    between atoms: _395  and  _397
REMARK  148  A    between atoms: _397  and  _398
REMARK  149  A    between atoms: _397  and  _400
REMARK  150  A    between atoms: _400  and  _401
REMARK  151  A    between atoms: _411  and  _413
REMARK  152  A    between atoms: _413  and  _414
REMARK  153  A    between atoms: _413  and  _416
REMARK  154  A    between atoms: _416  and  _417
REMARK  155  A    between atoms: _422  and  _424
REMARK  156  A    between atoms: _424  and  _425
REMARK  157  A    between atoms: _424  and  _427
REMARK  158  A    between atoms: _427  and  _428
REMARK  159  A    between atoms: _428  and  _429
REMARK  160  A    between atoms: _429  and  _430
REMARK                            x       y       z     vdW  Elec       q    Type
REMARK                         _______ _______ _______ _____ _____    ______ ____
ROOT
ATOM      1  O   HOH     1      -2.570  -3.194  11.638  0.00  0.00    +0.000 OA
ENDROOT
TORSDOF 0
REMARK  Name = ../refined-set-2016/3dbu/3dbu_pocket.pdb
REMARK  160 active torsions:
REMARK  status: ('A' for Active; 'I' for Inactive)
REMARK    1  A    between atoms: _1  and  _3
REMARK    2  A    between atoms: _3  and  _4
REMARK    3  A    between atoms: _3  and  _6
REMARK    4  A    between atoms: _6  and  _7
REMARK    5  A    between atoms: _17  and  _19
REMARK    6  A    between atoms: _19  and  _20
REMARK    7  A    between atoms: _19  and  _22
REMARK    8  A    between atoms: _22  and  _23
REMARK    9  A    between atoms: _28  and  _29
REMARK   10  A    between atoms: _31  and  _33
REMARK   11  A    between atoms: _33  and  _34
REMARK   12  A    between atoms: _33  and  _36
REMARK   13  A    between atoms: _36  and  _37
REMARK   14  A    between atoms: _40  and  _41
REMARK   15  A    between atoms: _46  and  _48
REMARK   16  A    between atoms: _48  and  _49
REMARK   17  A    between atoms: _48  and  _51
REMARK   18  A    between atoms: _51  and  _52
REMARK   19  A    between atoms: _57  and  _59
REMARK   20  A    between atoms: _59  and  _60
REMARK   21  A    between atoms: _59  and  _62
REMARK   22  A    between atoms: _62  and  _63
REMARK   23  A    between atoms: _68  and  _70
REMARK   24  A    between atoms: _70  and  _71
REMARK   25  A    between atoms: _70  and  _73
REMARK   26  A    between atoms: _73  and  _74
REMARK   27  A    between atoms: _76  and  _78
REMARK   28  A    between atoms: _78  and  _79
REMARK   29  A    between atoms: _78  and  _81
REMARK   30  A    between atoms: _81  and  _82
REMARK   31  A    between atoms: _82  and  _83
REMARK   32  A    between atoms: _88  and  _90
REMARK   33  A    between atoms: _90  and  _91
REMARK   34  A    between atoms: _90  and  _93
REMARK   35  A    between atoms: _93  and  _94
REMARK   36  A    between atoms: _94  and  _95
REMARK   37  A    between atoms: _98  and  _100
REMARK   38  A    between atoms: _100  and  _101
REMARK   39  A    between atoms: _100  and  _103
REMARK   40  A    between atoms: _103  and  _104
REMARK   41  A    between atoms: _107  and  _109
REMARK   42  A    between atoms: _109  and  _110
REMARK   43  A    between atoms: _109  and  _112
REMARK   44  A    between atoms: _112  and  _113
REMARK   45  A    between atoms: _113  and  _114
REMARK   46  A    between atoms: _119  and  _121
REMARK   47  A    between atoms: _121  and  _122
REMARK   48  A    between atoms: _121  and  _124
REMARK   49  A    between atoms: _124  and  _125
REMARK   50  A    between atoms: _131  and  _133
REMARK   51  A    between atoms: _144  and  _147
REMARK   52  A    between atoms: _147  and  _148
REMARK   53  A    between atoms: _156  and  _157
REMARK   54  A    between atoms: _165  and  _167
REMARK   55  A    between atoms: _167  and  _168
REMARK   56  A    between atoms: _167  and  _170
REMARK   57  A    between atoms: _170  and  _171
REMARK   58  A    between atoms: _171  and  _172
REMARK   59  A    between atoms: _175  and  _177
REMARK   60  A    between atoms: _177  and  _178
REMARK   61  A    between atoms: _177  and  _180
REMARK   62  A    between atoms: _180  and  _181
REMARK   63  A    between atoms: _186  and  _188
REMARK   64  A    between atoms: _188  and  _189
REMARK   65  A    between atoms: _188  and  _191
REMARK   66  A    between atoms: _191  and  _192
REMARK   67  A    between atoms: _192  and  _193
REMARK   68  A    between atoms: _196  and  _198
REMARK   69  A    between atoms: _198  and  _199
REMARK   70  A    between atoms: _198  and  _201
REMARK   71  A    between atoms: _201  and  _202
REMARK   72  A    between atoms: _205  and  _207
REMARK   73  A    between atoms: _207  and  _208
REMARK   74  A    between atoms: _207  and  _210
REMARK   75  A    between atoms: _210  and  _211
REMARK   76  A    between atoms: _212  and  ZN_439
REMARK   77  A    between atoms: _216  and  _218
REMARK   78  A    between atoms: _218  and  _219
REMARK   79  A    between atoms: _218  and  _221
REMARK   80  A    between atoms: _221  and  _222
REMARK   81  A    between atoms: _225  and  _227
REMARK   82  A    between atoms: _227  and  _228
REMARK   83  A    between atoms: _227  and  _230
REMARK   84  A    between atoms: _233  and  _235
REMARK   85  A    between atoms: _235  and  _236
REMARK   86  A    between atoms: _235  and  _238
REMARK   87  A    between atoms: _238  and  _239
REMARK   88  A    between atoms: _244  and  _246
REMARK   89  A    between atoms: _246  and  _247
REMARK   90  A    between atoms: _246  and  _249
REMARK   91  A    between atoms: _249  and  _250
REMARK   92  A    between atoms: _256  and  _258
REMARK   93  A    between atoms: _258  and  _259
REMARK   94  A    between atoms: _261  and  _263
REMARK   95  A    between atoms: _263  and  _264
REMARK   96  A    between atoms: _263  and  _266
REMARK   97  A    between atoms: _269  and  _271
REMARK   98  A    between atoms: _271  and  _272
REMARK   99  A    between atoms: _271  and  _274
REMARK  100  A    between atoms: _274  and  _275
REMARK  101  A    between atoms: _275  and  _276
REMARK  102  A    between atoms: _281  and  _283
REMARK  103  A    between atoms: _283  and  _284
REMARK  104  A    between atoms: _283  and  _286
REMARK  105  A    between atoms: _286  and  _287
REMARK  106  A    between atoms: _290  and  _292
REMARK  107  A    between atoms: _292  and  _293
REMARK  108  A    between atoms: _296  and  _298
REMARK  109  A    between atoms: _298  and  _299
REMARK  110  A    between atoms: _298  and  _301
REMARK  111  A    between atoms: _304  and  _306
REMARK  112  A    between atoms: _306  and  _307
REMARK  113  A    between atoms: _306  and  _309
REMARK  114  A    between atoms: _309  and  _310
REMARK  115  A    between atoms: _313  and  _315
REMARK  116  A    between atoms: _315  and  _316
REMARK  117  A    between atoms: _315  and  _318
REMARK  118  A    between atoms: _318  and  _319
REMARK  119  A    between atoms: _321  and  _323
REMARK  120  A    between atoms: _323  and  _324
REMARK  121  A    between atoms: _323  and  _326
REMARK  122  A    between atoms: _326  and  _327
REMARK  123  A    between atoms: _330  and  _332
REMARK  124  A    between atoms: _332  and  _333
REMARK  125  A    between atoms: _332  and  _335
REMARK  126  A    between atoms: _335  and  _336
REMARK  127  A    between atoms: _339  and  _341
REMARK  128  A    between atoms: _341  and  _342
REMARK  129  A    between atoms: _341  and  _344
REMARK  130  A    between atoms: _344  and  _345
REMARK  131  A    between atoms: _349  and  _350
REMARK  132  A    between atoms: _356  and  _357
REMARK  133  A    between atoms: _362  and  _364
REMARK  134  A    between atoms: _364  and  _365
REMARK  135  A    between atoms: _364  and  _367
REMARK  136  A    between atoms: _367  and  _368
REMARK  137  A    between atoms: _371  and  _373
REMARK  138  A    between atoms: _373  and  _374
REMARK  139  A    between atoms: _373  and  _376
REMARK  140  A    between atoms: _376  and  _377
REMARK  141  A    between atoms: _380  and  _382
REMARK  142  A    between atoms: _382  and  _383
REMARK  143  A    between atoms: _382  and  _385
REMARK  144  A    between atoms: _387  and  _389
REMARK  145  A    between atoms: _389  and  _390
REMARK  146  A    between atoms: _389  and  _392
REMARK  147  A    between atoms: _395  and  _397
REMARK  148  A    between atoms: _397  and  _398
REMARK  149  A    between atoms: _397  and  _400
REMARK  150  A    between atoms: _400  and  _401
REMARK  151  A    between atoms: _411  and  _413
REMARK  152  A    between atoms: _413  and  _414
REMARK  153  A    between atoms: _413  and  _416
REMARK  154  A    between atoms: _416  and  _417
REMARK  155  A    between atoms: _422  and  _424
REMARK  156  A    between atoms: _424  and  _425
REMARK  157  A    between atoms: _424  and  _427
REMARK  158  A    between atoms: _427  and  _428
REMARK  159  A    between atoms: _428  and  _429
REMARK  160  A    between atoms: _429  and  _430
REMARK                            x       y       z     vdW  Elec       q    Type
REMARK                         _______ _______ _______ _____ _____    ______ ____
ROOT
ATOM      1  O   HOH     1      -1.295  -4.038  15.867  0.00  0.00    +0.000 OA
ENDROOT
TORSDOF 0
REMARK  Name = ../refined-set-2016/3dbu/3dbu_pocket.pdb
REMARK  160 active torsions:
REMARK  status: ('A' for Active; 'I' for Inactive)
REMARK    1  A    between atoms: _1  and  _3
REMARK    2  A    between atoms: _3  and  _4
REMARK    3  A    between atoms: _3  and  _6
REMARK    4  A    between atoms: _6  and  _7
REMARK    5  A    between atoms: _17  and  _19
REMARK    6  A    between atoms: _19  and  _20
REMARK    7  A    between atoms: _19  and  _22
REMARK    8  A    between atoms: _22  and  _23
REMARK    9  A    between atoms: _28  and  _29
REMARK   10  A    between atoms: _31  and  _33
REMARK   11  A    between atoms: _33  and  _34
REMARK   12  A    between atoms: _33  and  _36
REMARK   13  A    between atoms: _36  and  _37
REMARK   14  A    between atoms: _40  and  _41
REMARK   15  A    between atoms: _46  and  _48
REMARK   16  A    between atoms: _48  and  _49
REMARK   17  A    between atoms: _48  and  _51
REMARK   18  A    between atoms: _51  and  _52
REMARK   19  A    between atoms: _57  and  _59
REMARK   20  A    between atoms: _59  and  _60
REMARK   21  A    between atoms: _59  and  _62
REMARK   22  A    between atoms: _62  and  _63
REMARK   23  A    between atoms: _68  and  _70
REMARK   24  A    between atoms: _70  and  _71
REMARK   25  A    between atoms: _70  and  _73
REMARK   26  A    between atoms: _73  and  _74
REMARK   27  A    between atoms: _76  and  _78
REMARK   28  A    between atoms: _78  and  _79
REMARK   29  A    between atoms: _78  and  _81
REMARK   30  A    between atoms: _81  and  _82
REMARK   31  A    between atoms: _82  and  _83
REMARK   32  A    between atoms: _88  and  _90
REMARK   33  A    between atoms: _90  and  _91
REMARK   34  A    between atoms: _90  and  _93
REMARK   35  A    between atoms: _93  and  _94
REMARK   36  A    between atoms: _94  and  _95
REMARK   37  A    between atoms: _98  and  _100
REMARK   38  A    between atoms: _100  and  _101
REMARK   39  A    between atoms: _100  and  _103
REMARK   40  A    between atoms: _103  and  _104
REMARK   41  A    between atoms: _107  and  _109
REMARK   42  A    between atoms: _109  and  _110
REMARK   43  A    between atoms: _109  and  _112
REMARK   44  A    between atoms: _112  and  _113
REMARK   45  A    between atoms: _113  and  _114
REMARK   46  A    between atoms: _119  and  _121
REMARK   47  A    between atoms: _121  and  _122
REMARK   48  A    between atoms: _121  and  _124
REMARK   49  A    between atoms: _124  and  _125
REMARK   50  A    between atoms: _131  and  _133
REMARK   51  A    between atoms: _144  and  _147
REMARK   52  A    between atoms: _147  and  _148
REMARK   53  A    between atoms: _156  and  _157
REMARK   54  A    between atoms: _165  and  _167
REMARK   55  A    between atoms: _167  and  _168
REMARK   56  A    between atoms: _167  and  _170
REMARK   57  A    between atoms: _170  and  _171
REMARK   58  A    between atoms: _171  and  _172
REMARK   59  A    between atoms: _175  and  _177
REMARK   60  A    between atoms: _177  and  _178
REMARK   61  A    between atoms: _177  and  _180
REMARK   62  A    between atoms: _180  and  _181
REMARK   63  A    between atoms: _186  and  _188
REMARK   64  A    between atoms: _188  and  _189
REMARK   65  A    between atoms: _188  and  _191
REMARK   66  A    between atoms: _191  and  _192
REMARK   67  A    between atoms: _192  and  _193
REMARK   68  A    between atoms: _196  and  _198
REMARK   69  A    between atoms: _198  and  _199
REMARK   70  A    between atoms: _198  and  _201
REMARK   71  A    between atoms: _201  and  _202
REMARK   72  A    between atoms: _205  and  _207
REMARK   73  A    between atoms: _207  and  _208
REMARK   74  A    between atoms: _207  and  _210
REMARK   75  A    between atoms: _210  and  _211
REMARK   76  A    between atoms: _212  and  ZN_439
REMARK   77  A    between atoms: _216  and  _218
REMARK   78  A    between atoms: _218  and  _219
REMARK   79  A    between atoms: _218  and  _221
REMARK   80  A    between atoms: _221  and  _222
REMARK   81  A    between atoms: _225  and  _227
REMARK   82  A    between atoms: _227  and  _228
REMARK   83  A    between atoms: _227  and  _230
REMARK   84  A    between atoms: _233  and  _235
REMARK   85  A    between atoms: _235  and  _236
REMARK   86  A    between atoms: _235  and  _238
REMARK   87  A    between atoms: _238  and  _239
REMARK   88  A    between atoms: _244  and  _246
REMARK   89  A    between atoms: _246  and  _247
REMARK   90  A    between atoms: _246  and  _249
REMARK   91  A    between atoms: _249  and  _250
REMARK   92  A    between atoms: _256  and  _258
REMARK   93  A    between atoms: _258  and  _259
REMARK   94  A    between atoms: _261  and  _263
REMARK   95  A    between atoms: _263  and  _264
REMARK   96  A    between atoms: _263  and  _266
REMARK   97  A    between atoms: _269  and  _271
REMARK   98  A    between atoms: _271  and  _272
REMARK   99  A    between atoms: _271  and  _274
REMARK  100  A    between atoms: _274  and  _275
REMARK  101  A    between atoms: _275  and  _276
REMARK  102  A    between atoms: _281  and  _283
REMARK  103  A    between atoms: _283  and  _284
REMARK  104  A    between atoms: _283  and  _286
REMARK  105  A    between atoms: _286  and  _287
REMARK  106  A    between atoms: _290  and  _292
REMARK  107  A    between atoms: _292  and  _293
REMARK  108  A    between atoms: _296  and  _298
REMARK  109  A    between atoms: _298  and  _299
REMARK  110  A    between atoms: _298  and  _301
REMARK  111  A    between atoms: _304  and  _306
REMARK  112  A    between atoms: _306  and  _307
REMARK  113  A    between atoms: _306  and  _309
REMARK  114  A    between atoms: _309  and  _310
REMARK  115  A    between atoms: _313  and  _315
REMARK  116  A    between atoms: _315  and  _316
REMARK  117  A    between atoms: _315  and  _318
REMARK  118  A    between atoms: _318  and  _319
REMARK  119  A    between atoms: _321  and  _323
REMARK  120  A    between atoms: _323  and  _324
REMARK  121  A    between atoms: _323  and  _326
REMARK  122  A    between atoms: _326  and  _327
REMARK  123  A    between atoms: _330  and  _332
REMARK  124  A    between atoms: _332  and  _333
REMARK  125  A    between atoms: _332  and  _335
REMARK  126  A    between atoms: _335  and  _336
REMARK  127  A    between atoms: _339  and  _341
REMARK  128  A    between atoms: _341  and  _342
REMARK  129  A    between atoms: _341  and  _344
REMARK  130  A    between atoms: _344  and  _345
REMARK  131  A    between atoms: _349  and  _350
REMARK  132  A    between atoms: _356  and  _357
REMARK  133  A    between atoms: _362  and  _364
REMARK  134  A    between atoms: _364  and  _365
REMARK  135  A    between atoms: _364  and  _367
REMARK  136  A    between atoms: _367  and  _368
REMARK  137  A    between atoms: _371  and  _373
REMARK  138  A    between atoms: _373  and  _374
REMARK  139  A    between atoms: _373  and  _376
REMARK  140  A    between atoms: _376  and  _377
REMARK  141  A    between atoms: _380  and  _382
REMARK  142  A    between atoms: _382  and  _383
REMARK  143  A    between atoms: _382  and  _385
REMARK  144  A    between atoms: _387  and  _389
REMARK  145  A    between atoms: _389  and  _390
REMARK  146  A    between atoms: _389  and  _392
REMARK  147  A    between atoms: _395  and  _397
REMARK  148  A    between atoms: _397  and  _398
REMARK  149  A    between atoms: _397  and  _400
REMARK  150  A    between atoms: _400  and  _401
REMARK  151  A    between atoms: _411  and  _413
REMARK  152  A    between atoms: _413  and  _414
REMARK  153  A    between atoms: _413  and  _416
REMARK  154  A    between atoms: _416  and  _417
REMARK  155  A    between atoms: _422  and  _424
REMARK  156  A    between atoms: _424  and  _425
REMARK  157  A    between atoms: _424  and  _427
REMARK  158  A    between atoms: _427  and  _428
REMARK  159  A    between atoms: _428  and  _429
REMARK  160  A    between atoms: _429  and  _430
REMARK                            x       y       z     vdW  Elec       q    Type
REMARK                         _______ _______ _______ _____ _____    ______ ____
ROOT
ATOM      1  O   HOH     1      -0.804  14.843  16.313  0.00  0.00    +0.000 OA
ENDROOT
TORSDOF 0
REMARK  Name = ../refined-set-2016/3dbu/3dbu_pocket.pdb
REMARK  160 active torsions:
REMARK  status: ('A' for Active; 'I' for Inactive)
REMARK    1  A    between atoms: _1  and  _3
REMARK    2  A    between atoms: _3  and  _4
REMARK    3  A    between atoms: _3  and  _6
REMARK    4  A    between atoms: _6  and  _7
REMARK    5  A    between atoms: _17  and  _19
REMARK    6  A    between atoms: _19  and  _20
REMARK    7  A    between atoms: _19  and  _22
REMARK    8  A    between atoms: _22  and  _23
REMARK    9  A    between atoms: _28  and  _29
REMARK   10  A    between atoms: _31  and  _33
REMARK   11  A    between atoms: _33  and  _34
REMARK   12  A    between atoms: _33  and  _36
REMARK   13  A    between atoms: _36  and  _37
REMARK   14  A    between atoms: _40  and  _41
REMARK   15  A    between atoms: _46  and  _48
REMARK   16  A    between atoms: _48  and  _49
REMARK   17  A    between atoms: _48  and  _51
REMARK   18  A    between atoms: _51  and  _52
REMARK   19  A    between atoms: _57  and  _59
REMARK   20  A    between atoms: _59  and  _60
REMARK   21  A    between atoms: _59  and  _62
REMARK   22  A    between atoms: _62  and  _63
REMARK   23  A    between atoms: _68  and  _70
REMARK   24  A    between atoms: _70  and  _71
REMARK   25  A    between atoms: _70  and  _73
REMARK   26  A    between atoms: _73  and  _74
REMARK   27  A    between atoms: _76  and  _78
REMARK   28  A    between atoms: _78  and  _79
REMARK   29  A    between atoms: _78  and  _81
REMARK   30  A    between atoms: _81  and  _82
REMARK   31  A    between atoms: _82  and  _83
REMARK   32  A    between atoms: _88  and  _90
REMARK   33  A    between atoms: _90  and  _91
REMARK   34  A    between atoms: _90  and  _93
REMARK   35  A    between atoms: _93  and  _94
REMARK   36  A    between atoms: _94  and  _95
REMARK   37  A    between atoms: _98  and  _100
REMARK   38  A    between atoms: _100  and  _101
REMARK   39  A    between atoms: _100  and  _103
REMARK   40  A    between atoms: _103  and  _104
REMARK   41  A    between atoms: _107  and  _109
REMARK   42  A    between atoms: _109  and  _110
REMARK   43  A    between atoms: _109  and  _112
REMARK   44  A    between atoms: _112  and  _113
REMARK   45  A    between atoms: _113  and  _114
REMARK   46  A    between atoms: _119  and  _121
REMARK   47  A    between atoms: _121  and  _122
REMARK   48  A    between atoms: _121  and  _124
REMARK   49  A    between atoms: _124  and  _125
REMARK   50  A    between atoms: _131  and  _133
REMARK   51  A    between atoms: _144  and  _147
REMARK   52  A    between atoms: _147  and  _148
REMARK   53  A    between atoms: _156  and  _157
REMARK   54  A    between atoms: _165  and  _167
REMARK   55  A    between atoms: _167  and  _168
REMARK   56  A    between atoms: _167  and  _170
REMARK   57  A    between atoms: _170  and  _171
REMARK   58  A    between atoms: _171  and  _172
REMARK   59  A    between atoms: _175  and  _177
REMARK   60  A    between atoms: _177  and  _178
REMARK   61  A    between atoms: _177  and  _180
REMARK   62  A    between atoms: _180  and  _181
REMARK   63  A    between atoms: _186  and  _188
REMARK   64  A    between atoms: _188  and  _189
REMARK   65  A    between atoms: _188  and  _191
REMARK   66  A    between atoms: _191  and  _192
REMARK   67  A    between atoms: _192  and  _193
REMARK   68  A    between atoms: _196  and  _198
REMARK   69  A    between atoms: _198  and  _199
REMARK   70  A    between atoms: _198  and  _201
REMARK   71  A    between atoms: _201  and  _202
REMARK   72  A    between atoms: _205  and  _207
REMARK   73  A    between atoms: _207  and  _208
REMARK   74  A    between atoms: _207  and  _210
REMARK   75  A    between atoms: _210  and  _211
REMARK   76  A    between atoms: _212  and  ZN_439
REMARK   77  A    between atoms: _216  and  _218
REMARK   78  A    between atoms: _218  and  _219
REMARK   79  A    between atoms: _218  and  _221
REMARK   80  A    between atoms: _221  and  _222
REMARK   81  A    between atoms: _225  and  _227
REMARK   82  A    between atoms: _227  and  _228
REMARK   83  A    between atoms: _227  and  _230
REMARK   84  A    between atoms: _233  and  _235
REMARK   85  A    between atoms: _235  and  _236
REMARK   86  A    between atoms: _235  and  _238
REMARK   87  A    between atoms: _238  and  _239
REMARK   88  A    between atoms: _244  and  _246
REMARK   89  A    between atoms: _246  and  _247
REMARK   90  A    between atoms: _246  and  _249
REMARK   91  A    between atoms: _249  and  _250
REMARK   92  A    between atoms: _256  and  _258
REMARK   93  A    between atoms: _258  and  _259
REMARK   94  A    between atoms: _261  and  _263
REMARK   95  A    between atoms: _263  and  _264
REMARK   96  A    between atoms: _263  and  _266
REMARK   97  A    between atoms: _269  and  _271
REMARK   98  A    between atoms: _271  and  _272
REMARK   99  A    between atoms: _271  and  _274
REMARK  100  A    between atoms: _274  and  _275
REMARK  101  A    between atoms: _275  and  _276
REMARK  102  A    between atoms: _281  and  _283
REMARK  103  A    between atoms: _283  and  _284
REMARK  104  A    between atoms: _283  and  _286
REMARK  105  A    between atoms: _286  and  _287
REMARK  106  A    between atoms: _290  and  _292
REMARK  107  A    between atoms: _292  and  _293
REMARK  108  A    between atoms: _296  and  _298
REMARK  109  A    between atoms: _298  and  _299
REMARK  110  A    between atoms: _298  and  _301
REMARK  111  A    between atoms: _304  and  _306
REMARK  112  A    between atoms: _306  and  _307
REMARK  113  A    between atoms: _306  and  _309
REMARK  114  A    between atoms: _309  and  _310
REMARK  115  A    between atoms: _313  and  _315
REMARK  116  A    between atoms: _315  and  _316
REMARK  117  A    between atoms: _315  and  _318
REMARK  118  A    between atoms: _318  and  _319
REMARK  119  A    between atoms: _321  and  _323
REMARK  120  A    between atoms: _323  and  _324
REMARK  121  A    between atoms: _323  and  _326
REMARK  122  A    between atoms: _326  and  _327
REMARK  123  A    between atoms: _330  and  _332
REMARK  124  A    between atoms: _332  and  _333
REMARK  125  A    between atoms: _332  and  _335
REMARK  126  A    between atoms: _335  and  _336
REMARK  127  A    between atoms: _339  and  _341
REMARK  128  A    between atoms: _341  and  _342
REMARK  129  A    between atoms: _341  and  _344
REMARK  130  A    between atoms: _344  and  _345
REMARK  131  A    between atoms: _349  and  _350
REMARK  132  A    between atoms: _356  and  _357
REMARK  133  A    between atoms: _362  and  _364
REMARK  134  A    between atoms: _364  and  _365
REMARK  135  A    between atoms: _364  and  _367
REMARK  136  A    between atoms: _367  and  _368
REMARK  137  A    between atoms: _371  and  _373
REMARK  138  A    between atoms: _373  and  _374
REMARK  139  A    between atoms: _373  and  _376
REMARK  140  A    between atoms: _376  and  _377
REMARK  141  A    between atoms: _380  and  _382
REMARK  142  A    between atoms: _382  and  _383
REMARK  143  A    between atoms: _382  and  _385
REMARK  144  A    between atoms: _387  and  _389
REMARK  145  A    between atoms: _389  and  _390
REMARK  146  A    between atoms: _389  and  _392
REMARK  147  A    between atoms: _395  and  _397
REMARK  148  A    between atoms: _397  and  _398
REMARK  149  A    between atoms: _397  and  _400
REMARK  150  A    between atoms: _400  and  _401
REMARK  151  A    between atoms: _411  and  _413
REMARK  152  A    between atoms: _413  and  _414
REMARK  153  A    between atoms: _413  and  _416
REMARK  154  A    between atoms: _416  and  _417
REMARK  155  A    between atoms: _422  and  _424
REMARK  156  A    between atoms: _424  and  _425
REMARK  157  A    between atoms: _424  and  _427
REMARK  158  A    between atoms: _427  and  _428
REMARK  159  A    between atoms: _428  and  _429
REMARK  160  A    between atoms: _429  and  _430
REMARK                            x       y       z     vdW  Elec       q    Type
REMARK                         _______ _______ _______ _____ _____    ______ ____
ROOT
ATOM      1  O   HOH     1      -6.203   8.620   5.376  0.00  0.00    +0.000 OA
ENDROOT
TORSDOF 0
REMARK  Name = ../refined-set-2016/3dbu/3dbu_pocket.pdb
REMARK  160 active torsions:
REMARK  status: ('A' for Active; 'I' for Inactive)
REMARK    1  A    between atoms: _1  and  _3
REMARK    2  A    between atoms: _3  and  _4
REMARK    3  A    between atoms: _3  and  _6
REMARK    4  A    between atoms: _6  and  _7
REMARK    5  A    between atoms: _17  and  _19
REMARK    6  A    between atoms: _19  and  _20
REMARK    7  A    between atoms: _19  and  _22
REMARK    8  A    between atoms: _22  and  _23
REMARK    9  A    between atoms: _28  and  _29
REMARK   10  A    between atoms: _31  and  _33
REMARK   11  A    between atoms: _33  and  _34
REMARK   12  A    between atoms: _33  and  _36
REMARK   13  A    between atoms: _36  and  _37
REMARK   14  A    between atoms: _40  and  _41
REMARK   15  A    between atoms: _46  and  _48
REMARK   16  A    between atoms: _48  and  _49
REMARK   17  A    between atoms: _48  and  _51
REMARK   18  A    between atoms: _51  and  _52
REMARK   19  A    between atoms: _57  and  _59
REMARK   20  A    between atoms: _59  and  _60
REMARK   21  A    between atoms: _59  and  _62
REMARK   22  A    between atoms: _62  and  _63
REMARK   23  A    between atoms: _68  and  _70
REMARK   24  A    between atoms: _70  and  _71
REMARK   25  A    between atoms: _70  and  _73
REMARK   26  A    between atoms: _73  and  _74
REMARK   27  A    between atoms: _76  and  _78
REMARK   28  A    between atoms: _78  and  _79
REMARK   29  A    between atoms: _78  and  _81
REMARK   30  A    between atoms: _81  and  _82
REMARK   31  A    between atoms: _82  and  _83
REMARK   32  A    between atoms: _88  and  _90
REMARK   33  A    between atoms: _90  and  _91
REMARK   34  A    between atoms: _90  and  _93
REMARK   35  A    between atoms: _93  and  _94
REMARK   36  A    between atoms: _94  and  _95
REMARK   37  A    between atoms: _98  and  _100
REMARK   38  A    between atoms: _100  and  _101
REMARK   39  A    between atoms: _100  and  _103
REMARK   40  A    between atoms: _103  and  _104
REMARK   41  A    between atoms: _107  and  _109
REMARK   42  A    between atoms: _109  and  _110
REMARK   43  A    between atoms: _109  and  _112
REMARK   44  A    between atoms: _112  and  _113
REMARK   45  A    between atoms: _113  and  _114
REMARK   46  A    between atoms: _119  and  _121
REMARK   47  A    between atoms: _121  and  _122
REMARK   48  A    between atoms: _121  and  _124
REMARK   49  A    between atoms: _124  and  _125
REMARK   50  A    between atoms: _131  and  _133
REMARK   51  A    between atoms: _144  and  _147
REMARK   52  A    between atoms: _147  and  _148
REMARK   53  A    between atoms: _156  and  _157
REMARK   54  A    between atoms: _165  and  _167
REMARK   55  A    between atoms: _167  and  _168
REMARK   56  A    between atoms: _167  and  _170
REMARK   57  A    between atoms: _170  and  _171
REMARK   58  A    between atoms: _171  and  _172
REMARK   59  A    between atoms: _175  and  _177
REMARK   60  A    between atoms: _177  and  _178
REMARK   61  A    between atoms: _177  and  _180
REMARK   62  A    between atoms: _180  and  _181
REMARK   63  A    between atoms: _186  and  _188
REMARK   64  A    between atoms: _188  and  _189
REMARK   65  A    between atoms: _188  and  _191
REMARK   66  A    between atoms: _191  and  _192
REMARK   67  A    between atoms: _192  and  _193
REMARK   68  A    between atoms: _196  and  _198
REMARK   69  A    between atoms: _198  and  _199
REMARK   70  A    between atoms: _198  and  _201
REMARK   71  A    between atoms: _201  and  _202
REMARK   72  A    between atoms: _205  and  _207
REMARK   73  A    between atoms: _207  and  _208
REMARK   74  A    between atoms: _207  and  _210
REMARK   75  A    between atoms: _210  and  _211
REMARK   76  A    between atoms: _212  and  ZN_439
REMARK   77  A    between atoms: _216  and  _218
REMARK   78  A    between atoms: _218  and  _219
REMARK   79  A    between atoms: _218  and  _221
REMARK   80  A    between atoms: _221  and  _222
REMARK   81  A    between atoms: _225  and  _227
REMARK   82  A    between atoms: _227  and  _228
REMARK   83  A    between atoms: _227  and  _230
REMARK   84  A    between atoms: _233  and  _235
REMARK   85  A    between atoms: _235  and  _236
REMARK   86  A    between atoms: _235  and  _238
REMARK   87  A    between atoms: _238  and  _239
REMARK   88  A    between atoms: _244  and  _246
REMARK   89  A    between atoms: _246  and  _247
REMARK   90  A    between atoms: _246  and  _249
REMARK   91  A    between atoms: _249  and  _250
REMARK   92  A    between atoms: _256  and  _258
REMARK   93  A    between atoms: _258  and  _259
REMARK   94  A    between atoms: _261  and  _263
REMARK   95  A    between atoms: _263  and  _264
REMARK   96  A    between atoms: _263  and  _266
REMARK   97  A    between atoms: _269  and  _271
REMARK   98  A    between atoms: _271  and  _272
REMARK   99  A    between atoms: _271  and  _274
REMARK  100  A    between atoms: _274  and  _275
REMARK  101  A    between atoms: _275  and  _276
REMARK  102  A    between atoms: _281  and  _283
REMARK  103  A    between atoms: _283  and  _284
REMARK  104  A    between atoms: _283  and  _286
REMARK  105  A    between atoms: _286  and  _287
REMARK  106  A    between atoms: _290  and  _292
REMARK  107  A    between atoms: _292  and  _293
REMARK  108  A    between atoms: _296  and  _298
REMARK  109  A    between atoms: _298  and  _299
REMARK  110  A    between atoms: _298  and  _301
REMARK  111  A    between atoms: _304  and  _306
REMARK  112  A    between atoms: _306  and  _307
REMARK  113  A    between atoms: _306  and  _309
REMARK  114  A    between atoms: _309  and  _310
REMARK  115  A    between atoms: _313  and  _315
REMARK  116  A    between atoms: _315  and  _316
REMARK  117  A    between atoms: _315  and  _318
REMARK  118  A    between atoms: _318  and  _319
REMARK  119  A    between atoms: _321  and  _323
REMARK  120  A    between atoms: _323  and  _324
REMARK  121  A    between atoms: _323  and  _326
REMARK  122  A    between atoms: _326  and  _327
REMARK  123  A    between atoms: _330  and  _332
REMARK  124  A    between atoms: _332  and  _333
REMARK  125  A    between atoms: _332  and  _335
REMARK  126  A    between atoms: _335  and  _336
REMARK  127  A    between atoms: _339  and  _341
REMARK  128  A    between atoms: _341  and  _342
REMARK  129  A    between atoms: _341  and  _344
REMARK  130  A    between atoms: _344  and  _345
REMARK  131  A    between atoms: _349  and  _350
REMARK  132  A    between atoms: _356  and  _357
REMARK  133  A    between atoms: _362  and  _364
REMARK  134  A    between atoms: _364  and  _365
REMARK  135  A    between atoms: _364  and  _367
REMARK  136  A    between atoms: _367  and  _368
REMARK  137  A    between atoms: _371  and  _373
REMARK  138  A    between atoms: _373  and  _374
REMARK  139  A    between atoms: _373  and  _376
REMARK  140  A    between atoms: _376  and  _377
REMARK  141  A    between atoms: _380  and  _382
REMARK  142  A    between atoms: _382  and  _383
REMARK  143  A    between atoms: _382  and  _385
REMARK  144  A    between atoms: _387  and  _389
REMARK  145  A    between atoms: _389  and  _390
REMARK  146  A    between atoms: _389  and  _392
REMARK  147  A    between atoms: _395  and  _397
REMARK  148  A    between atoms: _397  and  _398
REMARK  149  A    between atoms: _397  and  _400
REMARK  150  A    between atoms: _400  and  _401
REMARK  151  A    between atoms: _411  and  _413
REMARK  152  A    between atoms: _413  and  _414
REMARK  153  A    between atoms: _413  and  _416
REMARK  154  A    between atoms: _416  and  _417
REMARK  155  A    between atoms: _422  and  _424
REMARK  156  A    between atoms: _424  and  _425
REMARK  157  A    between atoms: _424  and  _427
REMARK  158  A    between atoms: _427  and  _428
REMARK  159  A    between atoms: _428  and  _429
REMARK  160  A    between atoms: _429  and  _430
REMARK                            x       y       z     vdW  Elec       q    Type
REMARK                         _______ _______ _______ _____ _____    ______ ____
ROOT
ATOM      1  O   HOH     1      -0.866   3.523  13.835  0.00  0.00    +0.000 OA
ENDROOT
TORSDOF 0
REMARK  Name = ../refined-set-2016/3dbu/3dbu_pocket.pdb
REMARK  160 active torsions:
REMARK  status: ('A' for Active; 'I' for Inactive)
REMARK    1  A    between atoms: _1  and  _3
REMARK    2  A    between atoms: _3  and  _4
REMARK    3  A    between atoms: _3  and  _6
REMARK    4  A    between atoms: _6  and  _7
REMARK    5  A    between atoms: _17  and  _19
REMARK    6  A    between atoms: _19  and  _20
REMARK    7  A    between atoms: _19  and  _22
REMARK    8  A    between atoms: _22  and  _23
REMARK    9  A    between atoms: _28  and  _29
REMARK   10  A    between atoms: _31  and  _33
REMARK   11  A    between atoms: _33  and  _34
REMARK   12  A    between atoms: _33  and  _36
REMARK   13  A    between atoms: _36  and  _37
REMARK   14  A    between atoms: _40  and  _41
REMARK   15  A    between atoms: _46  and  _48
REMARK   16  A    between atoms: _48  and  _49
REMARK   17  A    between atoms: _48  and  _51
REMARK   18  A    between atoms: _51  and  _52
REMARK   19  A    between atoms: _57  and  _59
REMARK   20  A    between atoms: _59  and  _60
REMARK   21  A    between atoms: _59  and  _62
REMARK   22  A    between atoms: _62  and  _63
REMARK   23  A    between atoms: _68  and  _70
REMARK   24  A    between atoms: _70  and  _71
REMARK   25  A    between atoms: _70  and  _73
REMARK   26  A    between atoms: _73  and  _74
REMARK   27  A    between atoms: _76  and  _78
REMARK   28  A    between atoms: _78  and  _79
REMARK   29  A    between atoms: _78  and  _81
REMARK   30  A    between atoms: _81  and  _82
REMARK   31  A    between atoms: _82  and  _83
REMARK   32  A    between atoms: _88  and  _90
REMARK   33  A    between atoms: _90  and  _91
REMARK   34  A    between atoms: _90  and  _93
REMARK   35  A    between atoms: _93  and  _94
REMARK   36  A    between atoms: _94  and  _95
REMARK   37  A    between atoms: _98  and  _100
REMARK   38  A    between atoms: _100  and  _101
REMARK   39  A    between atoms: _100  and  _103
REMARK   40  A    between atoms: _103  and  _104
REMARK   41  A    between atoms: _107  and  _109
REMARK   42  A    between atoms: _109  and  _110
REMARK   43  A    between atoms: _109  and  _112
REMARK   44  A    between atoms: _112  and  _113
REMARK   45  A    between atoms: _113  and  _114
REMARK   46  A    between atoms: _119  and  _121
REMARK   47  A    between atoms: _121  and  _122
REMARK   48  A    between atoms: _121  and  _124
REMARK   49  A    between atoms: _124  and  _125
REMARK   50  A    between atoms: _131  and  _133
REMARK   51  A    between atoms: _144  and  _147
REMARK   52  A    between atoms: _147  and  _148
REMARK   53  A    between atoms: _156  and  _157
REMARK   54  A    between atoms: _165  and  _167
REMARK   55  A    between atoms: _167  and  _168
REMARK   56  A    between atoms: _167  and  _170
REMARK   57  A    between atoms: _170  and  _171
REMARK   58  A    between atoms: _171  and  _172
REMARK   59  A    between atoms: _175  and  _177
REMARK   60  A    between atoms: _177  and  _178
REMARK   61  A    between atoms: _177  and  _180
REMARK   62  A    between atoms: _180  and  _181
REMARK   63  A    between atoms: _186  and  _188
REMARK   64  A    between atoms: _188  and  _189
REMARK   65  A    between atoms: _188  and  _191
REMARK   66  A    between atoms: _191  and  _192
REMARK   67  A    between atoms: _192  and  _193
REMARK   68  A    between atoms: _196  and  _198
REMARK   69  A    between atoms: _198  and  _199
REMARK   70  A    between atoms: _198  and  _201
REMARK   71  A    between atoms: _201  and  _202
REMARK   72  A    between atoms: _205  and  _207
REMARK   73  A    between atoms: _207  and  _208
REMARK   74  A    between atoms: _207  and  _210
REMARK   75  A    between atoms: _210  and  _211
REMARK   76  A    between atoms: _212  and  ZN_439
REMARK   77  A    between atoms: _216  and  _218
REMARK   78  A    between atoms: _218  and  _219
REMARK   79  A    between atoms: _218  and  _221
REMARK   80  A    between atoms: _221  and  _222
REMARK   81  A    between atoms: _225  and  _227
REMARK   82  A    between atoms: _227  and  _228
REMARK   83  A    between atoms: _227  and  _230
REMARK   84  A    between atoms: _233  and  _235
REMARK   85  A    between atoms: _235  and  _236
REMARK   86  A    between atoms: _235  and  _238
REMARK   87  A    between atoms: _238  and  _239
REMARK   88  A    between atoms: _244  and  _246
REMARK   89  A    between atoms: _246  and  _247
REMARK   90  A    between atoms: _246  and  _249
REMARK   91  A    between atoms: _249  and  _250
REMARK   92  A    between atoms: _256  and  _258
REMARK   93  A    between atoms: _258  and  _259
REMARK   94  A    between atoms: _261  and  _263
REMARK   95  A    between atoms: _263  and  _264
REMARK   96  A    between atoms: _263  and  _266
REMARK   97  A    between atoms: _269  and  _271
REMARK   98  A    between atoms: _271  and  _272
REMARK   99  A    between atoms: _271  and  _274
REMARK  100  A    between atoms: _274  and  _275
REMARK  101  A    between atoms: _275  and  _276
REMARK  102  A    between atoms: _281  and  _283
REMARK  103  A    between atoms: _283  and  _284
REMARK  104  A    between atoms: _283  and  _286
REMARK  105  A    between atoms: _286  and  _287
REMARK  106  A    between atoms: _290  and  _292
REMARK  107  A    between atoms: _292  and  _293
REMARK  108  A    between atoms: _296  and  _298
REMARK  109  A    between atoms: _298  and  _299
REMARK  110  A    between atoms: _298  and  _301
REMARK  111  A    between atoms: _304  and  _306
REMARK  112  A    between atoms: _306  and  _307
REMARK  113  A    between atoms: _306  and  _309
REMARK  114  A    between atoms: _309  and  _310
REMARK  115  A    between atoms: _313  and  _315
REMARK  116  A    between atoms: _315  and  _316
REMARK  117  A    between atoms: _315  and  _318
REMARK  118  A    between atoms: _318  and  _319
REMARK  119  A    between atoms: _321  and  _323
REMARK  120  A    between atoms: _323  and  _324
REMARK  121  A    between atoms: _323  and  _326
REMARK  122  A    between atoms: _326  and  _327
REMARK  123  A    between atoms: _330  and  _332
REMARK  124  A    between atoms: _332  and  _333
REMARK  125  A    between atoms: _332  and  _335
REMARK  126  A    between atoms: _335  and  _336
REMARK  127  A    between atoms: _339  and  _341
REMARK  128  A    between atoms: _341  and  _342
REMARK  129  A    between atoms: _341  and  _344
REMARK  130  A    between atoms: _344  and  _345
REMARK  131  A    between atoms: _349  and  _350
REMARK  132  A    between atoms: _356  and  _357
REMARK  133  A    between atoms: _362  and  _364
REMARK  134  A    between atoms: _364  and  _365
REMARK  135  A    between atoms: _364  and  _367
REMARK  136  A    between atoms: _367  and  _368
REMARK  137  A    between atoms: _371  and  _373
REMARK  138  A    between atoms: _373  and  _374
REMARK  139  A    between atoms: _373  and  _376
REMARK  140  A    between atoms: _376  and  _377
REMARK  141  A    between atoms: _380  and  _382
REMARK  142  A    between atoms: _382  and  _383
REMARK  143  A    between atoms: _382  and  _385
REMARK  144  A    between atoms: _387  and  _389
REMARK  145  A    between atoms: _389  and  _390
REMARK  146  A    between atoms: _389  and  _392
REMARK  147  A    between atoms: _395  and  _397
REMARK  148  A    between atoms: _397  and  _398
REMARK  149  A    between atoms: _397  and  _400
REMARK  150  A    between atoms: _400  and  _401
REMARK  151  A    between atoms: _411  and  _413
REMARK  152  A    between atoms: _413  and  _414
REMARK  153  A    between atoms: _413  and  _416
REMARK  154  A    between atoms: _416  and  _417
REMARK  155  A    between atoms: _422  and  _424
REMARK  156  A    between atoms: _424  and  _425
REMARK  157  A    between atoms: _424  and  _427
REMARK  158  A    between atoms: _427  and  _428
REMARK  159  A    between atoms: _428  and  _429
REMARK  160  A    between atoms: _429  and  _430
REMARK                            x       y       z     vdW  Elec       q    Type
REMARK                         _______ _______ _______ _____ _____    ______ ____
ROOT
ATOM      1  O   HOH     1      -4.309  -0.845  11.965  0.00  0.00    +0.000 OA
ENDROOT
TORSDOF 0
REMARK  Name = ../refined-set-2016/3dbu/3dbu_pocket.pdb
REMARK  160 active torsions:
REMARK  status: ('A' for Active; 'I' for Inactive)
REMARK    1  A    between atoms: _1  and  _3
REMARK    2  A    between atoms: _3  and  _4
REMARK    3  A    between atoms: _3  and  _6
REMARK    4  A    between atoms: _6  and  _7
REMARK    5  A    between atoms: _17  and  _19
REMARK    6  A    between atoms: _19  and  _20
REMARK    7  A    between atoms: _19  and  _22
REMARK    8  A    between atoms: _22  and  _23
REMARK    9  A    between atoms: _28  and  _29
REMARK   10  A    between atoms: _31  and  _33
REMARK   11  A    between atoms: _33  and  _34
REMARK   12  A    between atoms: _33  and  _36
REMARK   13  A    between atoms: _36  and  _37
REMARK   14  A    between atoms: _40  and  _41
REMARK   15  A    between atoms: _46  and  _48
REMARK   16  A    between atoms: _48  and  _49
REMARK   17  A    between atoms: _48  and  _51
REMARK   18  A    between atoms: _51  and  _52
REMARK   19  A    between atoms: _57  and  _59
REMARK   20  A    between atoms: _59  and  _60
REMARK   21  A    between atoms: _59  and  _62
REMARK   22  A    between atoms: _62  and  _63
REMARK   23  A    between atoms: _68  and  _70
REMARK   24  A    between atoms: _70  and  _71
REMARK   25  A    between atoms: _70  and  _73
REMARK   26  A    between atoms: _73  and  _74
REMARK   27  A    between atoms: _76  and  _78
REMARK   28  A    between atoms: _78  and  _79
REMARK   29  A    between atoms: _78  and  _81
REMARK   30  A    between atoms: _81  and  _82
REMARK   31  A    between atoms: _82  and  _83
REMARK   32  A    between atoms: _88  and  _90
REMARK   33  A    between atoms: _90  and  _91
REMARK   34  A    between atoms: _90  and  _93
REMARK   35  A    between atoms: _93  and  _94
REMARK   36  A    between atoms: _94  and  _95
REMARK   37  A    between atoms: _98  and  _100
REMARK   38  A    between atoms: _100  and  _101
REMARK   39  A    between atoms: _100  and  _103
REMARK   40  A    between atoms: _103  and  _104
REMARK   41  A    between atoms: _107  and  _109
REMARK   42  A    between atoms: _109  and  _110
REMARK   43  A    between atoms: _109  and  _112
REMARK   44  A    between atoms: _112  and  _113
REMARK   45  A    between atoms: _113  and  _114
REMARK   46  A    between atoms: _119  and  _121
REMARK   47  A    between atoms: _121  and  _122
REMARK   48  A    between atoms: _121  and  _124
REMARK   49  A    between atoms: _124  and  _125
REMARK   50  A    between atoms: _131  and  _133
REMARK   51  A    between atoms: _144  and  _147
REMARK   52  A    between atoms: _147  and  _148
REMARK   53  A    between atoms: _156  and  _157
REMARK   54  A    between atoms: _165  and  _167
REMARK   55  A    between atoms: _167  and  _168
REMARK   56  A    between atoms: _167  and  _170
REMARK   57  A    between atoms: _170  and  _171
REMARK   58  A    between atoms: _171  and  _172
REMARK   59  A    between atoms: _175  and  _177
REMARK   60  A    between atoms: _177  and  _178
REMARK   61  A    between atoms: _177  and  _180
REMARK   62  A    between atoms: _180  and  _181
REMARK   63  A    between atoms: _186  and  _188
REMARK   64  A    between atoms: _188  and  _189
REMARK   65  A    between atoms: _188  and  _191
REMARK   66  A    between atoms: _191  and  _192
REMARK   67  A    between atoms: _192  and  _193
REMARK   68  A    between atoms: _196  and  _198
REMARK   69  A    between atoms: _198  and  _199
REMARK   70  A    between atoms: _198  and  _201
REMARK   71  A    between atoms: _201  and  _202
REMARK   72  A    between atoms: _205  and  _207
REMARK   73  A    between atoms: _207  and  _208
REMARK   74  A    between atoms: _207  and  _210
REMARK   75  A    between atoms: _210  and  _211
REMARK   76  A    between atoms: _212  and  ZN_439
REMARK   77  A    between atoms: _216  and  _218
REMARK   78  A    between atoms: _218  and  _219
REMARK   79  A    between atoms: _218  and  _221
REMARK   80  A    between atoms: _221  and  _222
REMARK   81  A    between atoms: _225  and  _227
REMARK   82  A    between atoms: _227  and  _228
REMARK   83  A    between atoms: _227  and  _230
REMARK   84  A    between atoms: _233  and  _235
REMARK   85  A    between atoms: _235  and  _236
REMARK   86  A    between atoms: _235  and  _238
REMARK   87  A    between atoms: _238  and  _239
REMARK   88  A    between atoms: _244  and  _246
REMARK   89  A    between atoms: _246  and  _247
REMARK   90  A    between atoms: _246  and  _249
REMARK   91  A    between atoms: _249  and  _250
REMARK   92  A    between atoms: _256  and  _258
REMARK   93  A    between atoms: _258  and  _259
REMARK   94  A    between atoms: _261  and  _263
REMARK   95  A    between atoms: _263  and  _264
REMARK   96  A    between atoms: _263  and  _266
REMARK   97  A    between atoms: _269  and  _271
REMARK   98  A    between atoms: _271  and  _272
REMARK   99  A    between atoms: _271  and  _274
REMARK  100  A    between atoms: _274  and  _275
REMARK  101  A    between atoms: _275  and  _276
REMARK  102  A    between atoms: _281  and  _283
REMARK  103  A    between atoms: _283  and  _284
REMARK  104  A    between atoms: _283  and  _286
REMARK  105  A    between atoms: _286  and  _287
REMARK  106  A    between atoms: _290  and  _292
REMARK  107  A    between atoms: _292  and  _293
REMARK  108  A    between atoms: _296  and  _298
REMARK  109  A    between atoms: _298  and  _299
REMARK  110  A    between atoms: _298  and  _301
REMARK  111  A    between atoms: _304  and  _306
REMARK  112  A    between atoms: _306  and  _307
REMARK  113  A    between atoms: _306  and  _309
REMARK  114  A    between atoms: _309  and  _310
REMARK  115  A    between atoms: _313  and  _315
REMARK  116  A    between atoms: _315  and  _316
REMARK  117  A    between atoms: _315  and  _318
REMARK  118  A    between atoms: _318  and  _319
REMARK  119  A    between atoms: _321  and  _323
REMARK  120  A    between atoms: _323  and  _324
REMARK  121  A    between atoms: _323  and  _326
REMARK  122  A    between atoms: _326  and  _327
REMARK  123  A    between atoms: _330  and  _332
REMARK  124  A    between atoms: _332  and  _333
REMARK  125  A    between atoms: _332  and  _335
REMARK  126  A    between atoms: _335  and  _336
REMARK  127  A    between atoms: _339  and  _341
REMARK  128  A    between atoms: _341  and  _342
REMARK  129  A    between atoms: _341  and  _344
REMARK  130  A    between atoms: _344  and  _345
REMARK  131  A    between atoms: _349  and  _350
REMARK  132  A    between atoms: _356  and  _357
REMARK  133  A    between atoms: _362  and  _364
REMARK  134  A    between atoms: _364  and  _365
REMARK  135  A    between atoms: _364  and  _367
REMARK  136  A    between atoms: _367  and  _368
REMARK  137  A    between atoms: _371  and  _373
REMARK  138  A    between atoms: _373  and  _374
REMARK  139  A    between atoms: _373  and  _376
REMARK  140  A    between atoms: _376  and  _377
REMARK  141  A    between atoms: _380  and  _382
REMARK  142  A    between atoms: _382  and  _383
REMARK  143  A    between atoms: _382  and  _385
REMARK  144  A    between atoms: _387  and  _389
REMARK  145  A    between atoms: _389  and  _390
REMARK  146  A    between atoms: _389  and  _392
REMARK  147  A    between atoms: _395  and  _397
REMARK  148  A    between atoms: _397  and  _398
REMARK  149  A    between atoms: _397  and  _400
REMARK  150  A    between atoms: _400  and  _401
REMARK  151  A    between atoms: _411  and  _413
REMARK  152  A    between atoms: _413  and  _414
REMARK  153  A    between atoms: _413  and  _416
REMARK  154  A    between atoms: _416  and  _417
REMARK  155  A    between atoms: _422  and  _424
REMARK  156  A    between atoms: _424  and  _425
REMARK  157  A    between atoms: _424  and  _427
REMARK  158  A    between atoms: _427  and  _428
REMARK  159  A    between atoms: _428  and  _429
REMARK  160  A    between atoms: _429  and  _430
REMARK                            x       y       z     vdW  Elec       q    Type
REMARK                         _______ _______ _______ _____ _____    ______ ____
ROOT
ATOM      1  O   HOH     1      -5.357  10.111   7.247  0.00  0.00    +0.000 OA
ENDROOT
TORSDOF 0
REMARK  Name = ../refined-set-2016/3dbu/3dbu_pocket.pdb
REMARK  160 active torsions:
REMARK  status: ('A' for Active; 'I' for Inactive)
REMARK    1  A    between atoms: _1  and  _3
REMARK    2  A    between atoms: _3  and  _4
REMARK    3  A    between atoms: _3  and  _6
REMARK    4  A    between atoms: _6  and  _7
REMARK    5  A    between atoms: _17  and  _19
REMARK    6  A    between atoms: _19  and  _20
REMARK    7  A    between atoms: _19  and  _22
REMARK    8  A    between atoms: _22  and  _23
REMARK    9  A    between atoms: _28  and  _29
REMARK   10  A    between atoms: _31  and  _33
REMARK   11  A    between atoms: _33  and  _34
REMARK   12  A    between atoms: _33  and  _36
REMARK   13  A    between atoms: _36  and  _37
REMARK   14  A    between atoms: _40  and  _41
REMARK   15  A    between atoms: _46  and  _48
REMARK   16  A    between atoms: _48  and  _49
REMARK   17  A    between atoms: _48  and  _51
REMARK   18  A    between atoms: _51  and  _52
REMARK   19  A    between atoms: _57  and  _59
REMARK   20  A    between atoms: _59  and  _60
REMARK   21  A    between atoms: _59  and  _62
REMARK   22  A    between atoms: _62  and  _63
REMARK   23  A    between atoms: _68  and  _70
REMARK   24  A    between atoms: _70  and  _71
REMARK   25  A    between atoms: _70  and  _73
REMARK   26  A    between atoms: _73  and  _74
REMARK   27  A    between atoms: _76  and  _78
REMARK   28  A    between atoms: _78  and  _79
REMARK   29  A    between atoms: _78  and  _81
REMARK   30  A    between atoms: _81  and  _82
REMARK   31  A    between atoms: _82  and  _83
REMARK   32  A    between atoms: _88  and  _90
REMARK   33  A    between atoms: _90  and  _91
REMARK   34  A    between atoms: _90  and  _93
REMARK   35  A    between atoms: _93  and  _94
REMARK   36  A    between atoms: _94  and  _95
REMARK   37  A    between atoms: _98  and  _100
REMARK   38  A    between atoms: _100  and  _101
REMARK   39  A    between atoms: _100  and  _103
REMARK   40  A    between atoms: _103  and  _104
REMARK   41  A    between atoms: _107  and  _109
REMARK   42  A    between atoms: _109  and  _110
REMARK   43  A    between atoms: _109  and  _112
REMARK   44  A    between atoms: _112  and  _113
REMARK   45  A    between atoms: _113  and  _114
REMARK   46  A    between atoms: _119  and  _121
REMARK   47  A    between atoms: _121  and  _122
REMARK   48  A    between atoms: _121  and  _124
REMARK   49  A    between atoms: _124  and  _125
REMARK   50  A    between atoms: _131  and  _133
REMARK   51  A    between atoms: _144  and  _147
REMARK   52  A    between atoms: _147  and  _148
REMARK   53  A    between atoms: _156  and  _157
REMARK   54  A    between atoms: _165  and  _167
REMARK   55  A    between atoms: _167  and  _168
REMARK   56  A    between atoms: _167  and  _170
REMARK   57  A    between atoms: _170  and  _171
REMARK   58  A    between atoms: _171  and  _172
REMARK   59  A    between atoms: _175  and  _177
REMARK   60  A    between atoms: _177  and  _178
REMARK   61  A    between atoms: _177  and  _180
REMARK   62  A    between atoms: _180  and  _181
REMARK   63  A    between atoms: _186  and  _188
REMARK   64  A    between atoms: _188  and  _189
REMARK   65  A    between atoms: _188  and  _191
REMARK   66  A    between atoms: _191  and  _192
REMARK   67  A    between atoms: _192  and  _193
REMARK   68  A    between atoms: _196  and  _198
REMARK   69  A    between atoms: _198  and  _199
REMARK   70  A    between atoms: _198  and  _201
REMARK   71  A    between atoms: _201  and  _202
REMARK   72  A    between atoms: _205  and  _207
REMARK   73  A    between atoms: _207  and  _208
REMARK   74  A    between atoms: _207  and  _210
REMARK   75  A    between atoms: _210  and  _211
REMARK   76  A    between atoms: _212  and  ZN_439
REMARK   77  A    between atoms: _216  and  _218
REMARK   78  A    between atoms: _218  and  _219
REMARK   79  A    between atoms: _218  and  _221
REMARK   80  A    between atoms: _221  and  _222
REMARK   81  A    between atoms: _225  and  _227
REMARK   82  A    between atoms: _227  and  _228
REMARK   83  A    between atoms: _227  and  _230
REMARK   84  A    between atoms: _233  and  _235
REMARK   85  A    between atoms: _235  and  _236
REMARK   86  A    between atoms: _235  and  _238
REMARK   87  A    between atoms: _238  and  _239
REMARK   88  A    between atoms: _244  and  _246
REMARK   89  A    between atoms: _246  and  _247
REMARK   90  A    between atoms: _246  and  _249
REMARK   91  A    between atoms: _249  and  _250
REMARK   92  A    between atoms: _256  and  _258
REMARK   93  A    between atoms: _258  and  _259
REMARK   94  A    between atoms: _261  and  _263
REMARK   95  A    between atoms: _263  and  _264
REMARK   96  A    between atoms: _263  and  _266
REMARK   97  A    between atoms: _269  and  _271
REMARK   98  A    between atoms: _271  and  _272
REMARK   99  A    between atoms: _271  and  _274
REMARK  100  A    between atoms: _274  and  _275
REMARK  101  A    between atoms: _275  and  _276
REMARK  102  A    between atoms: _281  and  _283
REMARK  103  A    between atoms: _283  and  _284
REMARK  104  A    between atoms: _283  and  _286
REMARK  105  A    between atoms: _286  and  _287
REMARK  106  A    between atoms: _290  and  _292
REMARK  107  A    between atoms: _292  and  _293
REMARK  108  A    between atoms: _296  and  _298
REMARK  109  A    between atoms: _298  and  _299
REMARK  110  A    between atoms: _298  and  _301
REMARK  111  A    between atoms: _304  and  _306
REMARK  112  A    between atoms: _306  and  _307
REMARK  113  A    between atoms: _306  and  _309
REMARK  114  A    between atoms: _309  and  _310
REMARK  115  A    between atoms: _313  and  _315
REMARK  116  A    between atoms: _315  and  _316
REMARK  117  A    between atoms: _315  and  _318
REMARK  118  A    between atoms: _318  and  _319
REMARK  119  A    between atoms: _321  and  _323
REMARK  120  A    between atoms: _323  and  _324
REMARK  121  A    between atoms: _323  and  _326
REMARK  122  A    between atoms: _326  and  _327
REMARK  123  A    between atoms: _330  and  _332
REMARK  124  A    between atoms: _332  and  _333
REMARK  125  A    between atoms: _332  and  _335
REMARK  126  A    between atoms: _335  and  _336
REMARK  127  A    between atoms: _339  and  _341
REMARK  128  A    between atoms: _341  and  _342
REMARK  129  A    between atoms: _341  and  _344
REMARK  130  A    between atoms: _344  and  _345
REMARK  131  A    between atoms: _349  and  _350
REMARK  132  A    between atoms: _356  and  _357
REMARK  133  A    between atoms: _362  and  _364
REMARK  134  A    between atoms: _364  and  _365
REMARK  135  A    between atoms: _364  and  _367
REMARK  136  A    between atoms: _367  and  _368
REMARK  137  A    between atoms: _371  and  _373
REMARK  138  A    between atoms: _373  and  _374
REMARK  139  A    between atoms: _373  and  _376
REMARK  140  A    between atoms: _376  and  _377
REMARK  141  A    between atoms: _380  and  _382
REMARK  142  A    between atoms: _382  and  _383
REMARK  143  A    between atoms: _382  and  _385
REMARK  144  A    between atoms: _387  and  _389
REMARK  145  A    between atoms: _389  and  _390
REMARK  146  A    between atoms: _389  and  _392
REMARK  147  A    between atoms: _395  and  _397
REMARK  148  A    between atoms: _397  and  _398
REMARK  149  A    between atoms: _397  and  _400
REMARK  150  A    between atoms: _400  and  _401
REMARK  151  A    between atoms: _411  and  _413
REMARK  152  A    between atoms: _413  and  _414
REMARK  153  A    between atoms: _413  and  _416
REMARK  154  A    between atoms: _416  and  _417
REMARK  155  A    between atoms: _422  and  _424
REMARK  156  A    between atoms: _424  and  _425
REMARK  157  A    between atoms: _424  and  _427
REMARK  158  A    between atoms: _427  and  _428
REMARK  159  A    between atoms: _428  and  _429
REMARK  160  A    between atoms: _429  and  _430
REMARK                            x       y       z     vdW  Elec       q    Type
REMARK                         _______ _______ _______ _____ _____    ______ ____
ROOT
ATOM      1  O   HOH     1      -5.571   1.733  10.812  0.00  0.00    +0.000 OA
ENDROOT
TORSDOF 0
REMARK  Name = ../refined-set-2016/3dbu/3dbu_pocket.pdb
REMARK  160 active torsions:
REMARK  status: ('A' for Active; 'I' for Inactive)
REMARK    1  A    between atoms: _1  and  _3
REMARK    2  A    between atoms: _3  and  _4
REMARK    3  A    between atoms: _3  and  _6
REMARK    4  A    between atoms: _6  and  _7
REMARK    5  A    between atoms: _17  and  _19
REMARK    6  A    between atoms: _19  and  _20
REMARK    7  A    between atoms: _19  and  _22
REMARK    8  A    between atoms: _22  and  _23
REMARK    9  A    between atoms: _28  and  _29
REMARK   10  A    between atoms: _31  and  _33
REMARK   11  A    between atoms: _33  and  _34
REMARK   12  A    between atoms: _33  and  _36
REMARK   13  A    between atoms: _36  and  _37
REMARK   14  A    between atoms: _40  and  _41
REMARK   15  A    between atoms: _46  and  _48
REMARK   16  A    between atoms: _48  and  _49
REMARK   17  A    between atoms: _48  and  _51
REMARK   18  A    between atoms: _51  and  _52
REMARK   19  A    between atoms: _57  and  _59
REMARK   20  A    between atoms: _59  and  _60
REMARK   21  A    between atoms: _59  and  _62
REMARK   22  A    between atoms: _62  and  _63
REMARK   23  A    between atoms: _68  and  _70
REMARK   24  A    between atoms: _70  and  _71
REMARK   25  A    between atoms: _70  and  _73
REMARK   26  A    between atoms: _73  and  _74
REMARK   27  A    between atoms: _76  and  _78
REMARK   28  A    between atoms: _78  and  _79
REMARK   29  A    between atoms: _78  and  _81
REMARK   30  A    between atoms: _81  and  _82
REMARK   31  A    between atoms: _82  and  _83
REMARK   32  A    between atoms: _88  and  _90
REMARK   33  A    between atoms: _90  and  _91
REMARK   34  A    between atoms: _90  and  _93
REMARK   35  A    between atoms: _93  and  _94
REMARK   36  A    between atoms: _94  and  _95
REMARK   37  A    between atoms: _98  and  _100
REMARK   38  A    between atoms: _100  and  _101
REMARK   39  A    between atoms: _100  and  _103
REMARK   40  A    between atoms: _103  and  _104
REMARK   41  A    between atoms: _107  and  _109
REMARK   42  A    between atoms: _109  and  _110
REMARK   43  A    between atoms: _109  and  _112
REMARK   44  A    between atoms: _112  and  _113
REMARK   45  A    between atoms: _113  and  _114
REMARK   46  A    between atoms: _119  and  _121
REMARK   47  A    between atoms: _121  and  _122
REMARK   48  A    between atoms: _121  and  _124
REMARK   49  A    between atoms: _124  and  _125
REMARK   50  A    between atoms: _131  and  _133
REMARK   51  A    between atoms: _144  and  _147
REMARK   52  A    between atoms: _147  and  _148
REMARK   53  A    between atoms: _156  and  _157
REMARK   54  A    between atoms: _165  and  _167
REMARK   55  A    between atoms: _167  and  _168
REMARK   56  A    between atoms: _167  and  _170
REMARK   57  A    between atoms: _170  and  _171
REMARK   58  A    between atoms: _171  and  _172
REMARK   59  A    between atoms: _175  and  _177
REMARK   60  A    between atoms: _177  and  _178
REMARK   61  A    between atoms: _177  and  _180
REMARK   62  A    between atoms: _180  and  _181
REMARK   63  A    between atoms: _186  and  _188
REMARK   64  A    between atoms: _188  and  _189
REMARK   65  A    between atoms: _188  and  _191
REMARK   66  A    between atoms: _191  and  _192
REMARK   67  A    between atoms: _192  and  _193
REMARK   68  A    between atoms: _196  and  _198
REMARK   69  A    between atoms: _198  and  _199
REMARK   70  A    between atoms: _198  and  _201
REMARK   71  A    between atoms: _201  and  _202
REMARK   72  A    between atoms: _205  and  _207
REMARK   73  A    between atoms: _207  and  _208
REMARK   74  A    between atoms: _207  and  _210
REMARK   75  A    between atoms: _210  and  _211
REMARK   76  A    between atoms: _212  and  ZN_439
REMARK   77  A    between atoms: _216  and  _218
REMARK   78  A    between atoms: _218  and  _219
REMARK   79  A    between atoms: _218  and  _221
REMARK   80  A    between atoms: _221  and  _222
REMARK   81  A    between atoms: _225  and  _227
REMARK   82  A    between atoms: _227  and  _228
REMARK   83  A    between atoms: _227  and  _230
REMARK   84  A    between atoms: _233  and  _235
REMARK   85  A    between atoms: _235  and  _236
REMARK   86  A    between atoms: _235  and  _238
REMARK   87  A    between atoms: _238  and  _239
REMARK   88  A    between atoms: _244  and  _246
REMARK   89  A    between atoms: _246  and  _247
REMARK   90  A    between atoms: _246  and  _249
REMARK   91  A    between atoms: _249  and  _250
REMARK   92  A    between atoms: _256  and  _258
REMARK   93  A    between atoms: _258  and  _259
REMARK   94  A    between atoms: _261  and  _263
REMARK   95  A    between atoms: _263  and  _264
REMARK   96  A    between atoms: _263  and  _266
REMARK   97  A    between atoms: _269  and  _271
REMARK   98  A    between atoms: _271  and  _272
REMARK   99  A    between atoms: _271  and  _274
REMARK  100  A    between atoms: _274  and  _275
REMARK  101  A    between atoms: _275  and  _276
REMARK  102  A    between atoms: _281  and  _283
REMARK  103  A    between atoms: _283  and  _284
REMARK  104  A    between atoms: _283  and  _286
REMARK  105  A    between atoms: _286  and  _287
REMARK  106  A    between atoms: _290  and  _292
REMARK  107  A    between atoms: _292  and  _293
REMARK  108  A    between atoms: _296  and  _298
REMARK  109  A    between atoms: _298  and  _299
REMARK  110  A    between atoms: _298  and  _301
REMARK  111  A    between atoms: _304  and  _306
REMARK  112  A    between atoms: _306  and  _307
REMARK  113  A    between atoms: _306  and  _309
REMARK  114  A    between atoms: _309  and  _310
REMARK  115  A    between atoms: _313  and  _315
REMARK  116  A    between atoms: _315  and  _316
REMARK  117  A    between atoms: _315  and  _318
REMARK  118  A    between atoms: _318  and  _319
REMARK  119  A    between atoms: _321  and  _323
REMARK  120  A    between atoms: _323  and  _324
REMARK  121  A    between atoms: _323  and  _326
REMARK  122  A    between atoms: _326  and  _327
REMARK  123  A    between atoms: _330  and  _332
REMARK  124  A    between atoms: _332  and  _333
REMARK  125  A    between atoms: _332  and  _335
REMARK  126  A    between atoms: _335  and  _336
REMARK  127  A    between atoms: _339  and  _341
REMARK  128  A    between atoms: _341  and  _342
REMARK  129  A    between atoms: _341  and  _344
REMARK  130  A    between atoms: _344  and  _345
REMARK  131  A    between atoms: _349  and  _350
REMARK  132  A    between atoms: _356  and  _357
REMARK  133  A    between atoms: _362  and  _364
REMARK  134  A    between atoms: _364  and  _365
REMARK  135  A    between atoms: _364  and  _367
REMARK  136  A    between atoms: _367  and  _368
REMARK  137  A    between atoms: _371  and  _373
REMARK  138  A    between atoms: _373  and  _374
REMARK  139  A    between atoms: _373  and  _376
REMARK  140  A    between atoms: _376  and  _377
REMARK  141  A    between atoms: _380  and  _382
REMARK  142  A    between atoms: _382  and  _383
REMARK  143  A    between atoms: _382  and  _385
REMARK  144  A    between atoms: _387  and  _389
REMARK  145  A    between atoms: _389  and  _390
REMARK  146  A    between atoms: _389  and  _392
REMARK  147  A    between atoms: _395  and  _397
REMARK  148  A    between atoms: _397  and  _398
REMARK  149  A    between atoms: _397  and  _400
REMARK  150  A    between atoms: _400  and  _401
REMARK  151  A    between atoms: _411  and  _413
REMARK  152  A    between atoms: _413  and  _414
REMARK  153  A    between atoms: _413  and  _416
REMARK  154  A    between atoms: _416  and  _417
REMARK  155  A    between atoms: _422  and  _424
REMARK  156  A    between atoms: _424  and  _425
REMARK  157  A    between atoms: _424  and  _427
REMARK  158  A    between atoms: _427  and  _428
REMARK  159  A    between atoms: _428  and  _429
REMARK  160  A    between atoms: _429  and  _430
REMARK                            x       y       z     vdW  Elec       q    Type
REMARK                         _______ _______ _______ _____ _____    ______ ____
ROOT
ATOM      1  O   HOH     1      -5.290   7.245   9.238  0.00  0.00    +0.000 OA
ENDROOT
TORSDOF 0
REMARK  Name = ../refined-set-2016/3dbu/3dbu_pocket.pdb
REMARK  160 active torsions:
REMARK  status: ('A' for Active; 'I' for Inactive)
REMARK    1  A    between atoms: _1  and  _3
REMARK    2  A    between atoms: _3  and  _4
REMARK    3  A    between atoms: _3  and  _6
REMARK    4  A    between atoms: _6  and  _7
REMARK    5  A    between atoms: _17  and  _19
REMARK    6  A    between atoms: _19  and  _20
REMARK    7  A    between atoms: _19  and  _22
REMARK    8  A    between atoms: _22  and  _23
REMARK    9  A    between atoms: _28  and  _29
REMARK   10  A    between atoms: _31  and  _33
REMARK   11  A    between atoms: _33  and  _34
REMARK   12  A    between atoms: _33  and  _36
REMARK   13  A    between atoms: _36  and  _37
REMARK   14  A    between atoms: _40  and  _41
REMARK   15  A    between atoms: _46  and  _48
REMARK   16  A    between atoms: _48  and  _49
REMARK   17  A    between atoms: _48  and  _51
REMARK   18  A    between atoms: _51  and  _52
REMARK   19  A    between atoms: _57  and  _59
REMARK   20  A    between atoms: _59  and  _60
REMARK   21  A    between atoms: _59  and  _62
REMARK   22  A    between atoms: _62  and  _63
REMARK   23  A    between atoms: _68  and  _70
REMARK   24  A    between atoms: _70  and  _71
REMARK   25  A    between atoms: _70  and  _73
REMARK   26  A    between atoms: _73  and  _74
REMARK   27  A    between atoms: _76  and  _78
REMARK   28  A    between atoms: _78  and  _79
REMARK   29  A    between atoms: _78  and  _81
REMARK   30  A    between atoms: _81  and  _82
REMARK   31  A    between atoms: _82  and  _83
REMARK   32  A    between atoms: _88  and  _90
REMARK   33  A    between atoms: _90  and  _91
REMARK   34  A    between atoms: _90  and  _93
REMARK   35  A    between atoms: _93  and  _94
REMARK   36  A    between atoms: _94  and  _95
REMARK   37  A    between atoms: _98  and  _100
REMARK   38  A    between atoms: _100  and  _101
REMARK   39  A    between atoms: _100  and  _103
REMARK   40  A    between atoms: _103  and  _104
REMARK   41  A    between atoms: _107  and  _109
REMARK   42  A    between atoms: _109  and  _110
REMARK   43  A    between atoms: _109  and  _112
REMARK   44  A    between atoms: _112  and  _113
REMARK   45  A    between atoms: _113  and  _114
REMARK   46  A    between atoms: _119  and  _121
REMARK   47  A    between atoms: _121  and  _122
REMARK   48  A    between atoms: _121  and  _124
REMARK   49  A    between atoms: _124  and  _125
REMARK   50  A    between atoms: _131  and  _133
REMARK   51  A    between atoms: _144  and  _147
REMARK   52  A    between atoms: _147  and  _148
REMARK   53  A    between atoms: _156  and  _157
REMARK   54  A    between atoms: _165  and  _167
REMARK   55  A    between atoms: _167  and  _168
REMARK   56  A    between atoms: _167  and  _170
REMARK   57  A    between atoms: _170  and  _171
REMARK   58  A    between atoms: _171  and  _172
REMARK   59  A    between atoms: _175  and  _177
REMARK   60  A    between atoms: _177  and  _178
REMARK   61  A    between atoms: _177  and  _180
REMARK   62  A    between atoms: _180  and  _181
REMARK   63  A    between atoms: _186  and  _188
REMARK   64  A    between atoms: _188  and  _189
REMARK   65  A    between atoms: _188  and  _191
REMARK   66  A    between atoms: _191  and  _192
REMARK   67  A    between atoms: _192  and  _193
REMARK   68  A    between atoms: _196  and  _198
REMARK   69  A    between atoms: _198  and  _199
REMARK   70  A    between atoms: _198  and  _201
REMARK   71  A    between atoms: _201  and  _202
REMARK   72  A    between atoms: _205  and  _207
REMARK   73  A    between atoms: _207  and  _208
REMARK   74  A    between atoms: _207  and  _210
REMARK   75  A    between atoms: _210  and  _211
REMARK   76  A    between atoms: _212  and  ZN_439
REMARK   77  A    between atoms: _216  and  _218
REMARK   78  A    between atoms: _218  and  _219
REMARK   79  A    between atoms: _218  and  _221
REMARK   80  A    between atoms: _221  and  _222
REMARK   81  A    between atoms: _225  and  _227
REMARK   82  A    between atoms: _227  and  _228
REMARK   83  A    between atoms: _227  and  _230
REMARK   84  A    between atoms: _233  and  _235
REMARK   85  A    between atoms: _235  and  _236
REMARK   86  A    between atoms: _235  and  _238
REMARK   87  A    between atoms: _238  and  _239
REMARK   88  A    between atoms: _244  and  _246
REMARK   89  A    between atoms: _246  and  _247
REMARK   90  A    between atoms: _246  and  _249
REMARK   91  A    between atoms: _249  and  _250
REMARK   92  A    between atoms: _256  and  _258
REMARK   93  A    between atoms: _258  and  _259
REMARK   94  A    between atoms: _261  and  _263
REMARK   95  A    between atoms: _263  and  _264
REMARK   96  A    between atoms: _263  and  _266
REMARK   97  A    between atoms: _269  and  _271
REMARK   98  A    between atoms: _271  and  _272
REMARK   99  A    between atoms: _271  and  _274
REMARK  100  A    between atoms: _274  and  _275
REMARK  101  A    between atoms: _275  and  _276
REMARK  102  A    between atoms: _281  and  _283
REMARK  103  A    between atoms: _283  and  _284
REMARK  104  A    between atoms: _283  and  _286
REMARK  105  A    between atoms: _286  and  _287
REMARK  106  A    between atoms: _290  and  _292
REMARK  107  A    between atoms: _292  and  _293
REMARK  108  A    between atoms: _296  and  _298
REMARK  109  A    between atoms: _298  and  _299
REMARK  110  A    between atoms: _298  and  _301
REMARK  111  A    between atoms: _304  and  _306
REMARK  112  A    between atoms: _306  and  _307
REMARK  113  A    between atoms: _306  and  _309
REMARK  114  A    between atoms: _309  and  _310
REMARK  115  A    between atoms: _313  and  _315
REMARK  116  A    between atoms: _315  and  _316
REMARK  117  A    between atoms: _315  and  _318
REMARK  118  A    between atoms: _318  and  _319
REMARK  119  A    between atoms: _321  and  _323
REMARK  120  A    between atoms: _323  and  _324
REMARK  121  A    between atoms: _323  and  _326
REMARK  122  A    between atoms: _326  and  _327
REMARK  123  A    between atoms: _330  and  _332
REMARK  124  A    between atoms: _332  and  _333
REMARK  125  A    between atoms: _332  and  _335
REMARK  126  A    between atoms: _335  and  _336
REMARK  127  A    between atoms: _339  and  _341
REMARK  128  A    between atoms: _341  and  _342
REMARK  129  A    between atoms: _341  and  _344
REMARK  130  A    between atoms: _344  and  _345
REMARK  131  A    between atoms: _349  and  _350
REMARK  132  A    between atoms: _356  and  _357
REMARK  133  A    between atoms: _362  and  _364
REMARK  134  A    between atoms: _364  and  _365
REMARK  135  A    between atoms: _364  and  _367
REMARK  136  A    between atoms: _367  and  _368
REMARK  137  A    between atoms: _371  and  _373
REMARK  138  A    between atoms: _373  and  _374
REMARK  139  A    between atoms: _373  and  _376
REMARK  140  A    between atoms: _376  and  _377
REMARK  141  A    between atoms: _380  and  _382
REMARK  142  A    between atoms: _382  and  _383
REMARK  143  A    between atoms: _382  and  _385
REMARK  144  A    between atoms: _387  and  _389
REMARK  145  A    between atoms: _389  and  _390
REMARK  146  A    between atoms: _389  and  _392
REMARK  147  A    between atoms: _395  and  _397
REMARK  148  A    between atoms: _397  and  _398
REMARK  149  A    between atoms: _397  and  _400
REMARK  150  A    between atoms: _400  and  _401
REMARK  151  A    between atoms: _411  and  _413
REMARK  152  A    between atoms: _413  and  _414
REMARK  153  A    between atoms: _413  and  _416
REMARK  154  A    between atoms: _416  and  _417
REMARK  155  A    between atoms: _422  and  _424
REMARK  156  A    between atoms: _424  and  _425
REMARK  157  A    between atoms: _424  and  _427
REMARK  158  A    between atoms: _427  and  _428
REMARK  159  A    between atoms: _428  and  _429
REMARK  160  A    between atoms: _429  and  _430
REMARK                            x       y       z     vdW  Elec       q    Type
REMARK                         _______ _______ _______ _____ _____    ______ ____
ROOT
ATOM      1  O   HOH     1      -4.218   4.347   9.820  0.00  0.00    +0.000 OA
ENDROOT
TORSDOF 0
