REMARK  Name = ../refined-set-2016/1rbp/1rbp_pocket.pdb
REMARK  226 active torsions:
REMARK  status: ('A' for Active; 'I' for Inactive)
REMARK    1  A    between atoms: _1  and  _3
REMARK    2  A    between atoms: _3  and  _4
REMARK    3  A    between atoms: _3  and  _6
REMARK    4  A    between atoms: _6  and  _7
REMARK    5  A    between atoms: _13  and  _15
REMARK    6  A    between atoms: _15  and  _16
REMARK    7  A    between atoms: _15  and  _18
REMARK    8  A    between atoms: _18  and  _19
REMARK    9  A    between atoms: _29  and  _31
REMARK   10  A    between atoms: _31  and  _32
REMARK   11  A    between atoms: _36  and  _37
REMARK   12  A    between atoms: _42  and  _44
REMARK   13  A    between atoms: _44  and  _45
REMARK   14  A    between atoms: _44  and  _47
REMARK   15  A    between atoms: _47  and  _48
REMARK   16  A    between atoms: _48  and  _49
REMARK   17  A    between atoms: _52  and  _54
REMARK   18  A    between atoms: _54  and  _55
REMARK   19  A    between atoms: _57  and  _59
REMARK   20  A    between atoms: _59  and  _60
REMARK   21  A    between atoms: _59  and  _62
REMARK   22  A    between atoms: _62  and  _63
REMARK   23  A    between atoms: _66  and  _68
REMARK   24  A    between atoms: _68  and  _69
REMARK   25  A    between atoms: _68  and  _71
REMARK   26  A    between atoms: _71  and  _72
REMARK   27  A    between atoms: _78  and  _80
REMARK   28  A    between atoms: _80  and  _81
REMARK   29  A    between atoms: _80  and  _83
REMARK   30  A    between atoms: _83  and  _84
REMARK   31  A    between atoms: _87  and  _89
REMARK   32  A    between atoms: _89  and  _90
REMARK   33  A    between atoms: _89  and  _92
REMARK   34  A    between atoms: _92  and  _93
REMARK   35  A    between atoms: _93  and  _94
REMARK   36  A    between atoms: _99  and  _101
REMARK   37  A    between atoms: _101  and  _102
REMARK   38  A    between atoms: _101  and  _104
REMARK   39  A    between atoms: _104  and  _105
REMARK   40  A    between atoms: _108  and  _110
REMARK   41  A    between atoms: _110  and  _111
REMARK   42  A    between atoms: _110  and  _113
REMARK   43  A    between atoms: _116  and  _118
REMARK   44  A    between atoms: _118  and  _119
REMARK   45  A    between atoms: _122  and  _124
REMARK   46  A    between atoms: _124  and  _125
REMARK   47  A    between atoms: _124  and  _127
REMARK   48  A    between atoms: _127  and  _128
REMARK   49  A    between atoms: _128  and  _129
REMARK   50  A    between atoms: _132  and  _134
REMARK   51  A    between atoms: _134  and  _135
REMARK   52  A    between atoms: _134  and  _137
REMARK   53  A    between atoms: _137  and  _138
REMARK   54  A    between atoms: _144  and  _146
REMARK   55  A    between atoms: _146  and  _147
REMARK   56  A    between atoms: _146  and  _149
REMARK   57  A    between atoms: _149  and  _150
REMARK   58  A    between atoms: _152  and  _154
REMARK   59  A    between atoms: _154  and  _155
REMARK   60  A    between atoms: _154  and  _157
REMARK   61  A    between atoms: _157  and  _158
REMARK   62  A    between atoms: _160  and  _162
REMARK   63  A    between atoms: _162  and  _163
REMARK   64  A    between atoms: _166  and  _168
REMARK   65  A    between atoms: _168  and  _169
REMARK   66  A    between atoms: _168  and  _171
REMARK   67  A    between atoms: _171  and  _172
REMARK   68  A    between atoms: _175  and  _177
REMARK   69  A    between atoms: _177  and  _178
REMARK   70  A    between atoms: _181  and  _183
REMARK   71  A    between atoms: _183  and  _184
REMARK   72  A    between atoms: _183  and  _186
REMARK   73  A    between atoms: _186  and  _187
REMARK   74  A    between atoms: _187  and  _188
REMARK   75  A    between atoms: _188  and  _189
REMARK   76  A    between atoms: _189  and  _190
REMARK   77  A    between atoms: _194  and  _196
REMARK   78  A    between atoms: _196  and  _197
REMARK   79  A    between atoms: _199  and  _201
REMARK   80  A    between atoms: _201  and  _202
REMARK   81  A    between atoms: _201  and  _204
REMARK   82  A    between atoms: _204  and  _205
REMARK   83  A    between atoms: _205  and  _206
REMARK   84  A    between atoms: _206  and  _207
REMARK   85  A    between atoms: _216  and  _218
REMARK   86  A    between atoms: _218  and  _219
REMARK   87  A    between atoms: _218  and  _221
REMARK   88  A    between atoms: _224  and  _226
REMARK   89  A    between atoms: _226  and  _227
REMARK   90  A    between atoms: _226  and  _229
REMARK   91  A    between atoms: _229  and  _230
REMARK   92  A    between atoms: _230  and  _231
REMARK   93  A    between atoms: _231  and  _232
REMARK   94  A    between atoms: _241  and  _243
REMARK   95  A    between atoms: _243  and  _244
REMARK   96  A    between atoms: _243  and  _246
REMARK   97  A    between atoms: _246  and  _247
REMARK   98  A    between atoms: _250  and  _252
REMARK   99  A    between atoms: _252  and  _253
REMARK  100  A    between atoms: _252  and  _255
REMARK  101  A    between atoms: _255  and  _256
REMARK  102  A    between atoms: _259  and  _261
REMARK  103  A    between atoms: _261  and  _262
REMARK  104  A    between atoms: _261  and  _264
REMARK  105  A    between atoms: _267  and  _269
REMARK  106  A    between atoms: _269  and  _270
REMARK  107  A    between atoms: _273  and  _275
REMARK  108  A    between atoms: _275  and  _276
REMARK  109  A    between atoms: _275  and  _278
REMARK  110  A    between atoms: _278  and  _279
REMARK  111  A    between atoms: _282  and  _284
REMARK  112  A    between atoms: _284  and  _285
REMARK  113  A    between atoms: _284  and  _287
REMARK  114  A    between atoms: _287  and  _288
REMARK  115  A    between atoms: _288  and  _289
REMARK  116  A    between atoms: _291  and  _293
REMARK  117  A    between atoms: _293  and  _294
REMARK  118  A    between atoms: _293  and  _296
REMARK  119  A    between atoms: _299  and  _301
REMARK  120  A    between atoms: _301  and  _302
REMARK  121  A    between atoms: _304  and  _306
REMARK  122  A    between atoms: _306  and  _307
REMARK  123  A    between atoms: _306  and  _309
REMARK  124  A    between atoms: _309  and  _310
REMARK  125  A    between atoms: _313  and  _315
REMARK  126  A    between atoms: _315  and  _316
REMARK  127  A    between atoms: _315  and  _318
REMARK  128  A    between atoms: _318  and  _319
REMARK  129  A    between atoms: _325  and  _327
REMARK  130  A    between atoms: _327  and  _328
REMARK  131  A    between atoms: _327  and  _330
REMARK  132  A    between atoms: _330  and  _331
REMARK  133  A    between atoms: _331  and  _332
REMARK  134  A    between atoms: _334  and  _336
REMARK  135  A    between atoms: _336  and  _337
REMARK  136  A    between atoms: _336  and  _339
REMARK  137  A    between atoms: _339  and  _340
REMARK  138  A    between atoms: _340  and  _341
REMARK  139  A    between atoms: _341  and  _342
REMARK  140  A    between atoms: _342  and  _343
REMARK  141  A    between atoms: _347  and  _349
REMARK  142  A    between atoms: _349  and  _350
REMARK  143  A    between atoms: _349  and  _352
REMARK  144  A    between atoms: _352  and  _353
REMARK  145  A    between atoms: _358  and  _359
REMARK  146  A    between atoms: _361  and  _363
REMARK  147  A    between atoms: _363  and  _364
REMARK  148  A    between atoms: _363  and  _366
REMARK  149  A    between atoms: _366  and  _367
REMARK  150  A    between atoms: _377  and  _379
REMARK  151  A    between atoms: _379  and  _380
REMARK  152  A    between atoms: _382  and  _384
REMARK  153  A    between atoms: _384  and  _385
REMARK  154  A    between atoms: _384  and  _387
REMARK  155  A    between atoms: _387  and  _388
REMARK  156  A    between atoms: _394  and  _396
REMARK  157  A    between atoms: _396  and  _397
REMARK  158  A    between atoms: _396  and  _399
REMARK  159  A    between atoms: _399  and  _400
REMARK  160  A    between atoms: _403  and  _405
REMARK  161  A    between atoms: _405  and  _406
REMARK  162  A    between atoms: _405  and  _408
REMARK  163  A    between atoms: _408  and  _409
REMARK  164  A    between atoms: _409  and  _410
REMARK  165  A    between atoms: _415  and  _417
REMARK  166  A    between atoms: _417  and  _418
REMARK  167  A    between atoms: _417  and  _420
REMARK  168  A    between atoms: _420  and  _421
REMARK  169  A    between atoms: _421  and  _422
REMARK  170  A    between atoms: _422  and  _423
REMARK  171  A    between atoms: _423  and  _424
REMARK  172  A    between atoms: _428  and  _430
REMARK  173  A    between atoms: _430  and  _431
REMARK  174  A    between atoms: _433  and  _435
REMARK  175  A    between atoms: _435  and  _436
REMARK  176  A    between atoms: _435  and  _438
REMARK  177  A    between atoms: _438  and  _439
REMARK  178  A    between atoms: _442  and  _444
REMARK  179  A    between atoms: _444  and  _445
REMARK  180  A    between atoms: _444  and  _447
REMARK  181  A    between atoms: _447  and  _448
REMARK  182  A    between atoms: _451  and  _453
REMARK  183  A    between atoms: _453  and  _454
REMARK  184  A    between atoms: _453  and  _456
REMARK  185  A    between atoms: _456  and  _457
REMARK  186  A    between atoms: _462  and  _464
REMARK  187  A    between atoms: _464  and  _465
REMARK  188  A    between atoms: _464  and  _467
REMARK  189  A    between atoms: _467  and  _468
REMARK  190  A    between atoms: _478  and  _480
REMARK  191  A    between atoms: _480  and  _481
REMARK  192  A    between atoms: _480  and  _483
REMARK  193  A    between atoms: _483  and  _484
REMARK  194  A    between atoms: _484  and  _485
REMARK  195  A    between atoms: _490  and  _492
REMARK  196  A    between atoms: _492  and  _493
REMARK  197  A    between atoms: _492  and  _495
REMARK  198  A    between atoms: _495  and  _496
REMARK  199  A    between atoms: _501  and  _502
REMARK  200  A    between atoms: _504  and  _506
REMARK  201  A    between atoms: _506  and  _507
REMARK  202  A    between atoms: _506  and  _509
REMARK  203  A    between atoms: _509  and  _510
REMARK  204  A    between atoms: _512  and  _514
REMARK  205  A    between atoms: _514  and  _515
REMARK  206  A    between atoms: _514  and  _517
REMARK  207  A    between atoms: _517  and  _518
REMARK  208  A    between atoms: _518  and  _519
REMARK  209  A    between atoms: _519  and  _520
REMARK  210  A    between atoms: _529  and  _531
REMARK  211  A    between atoms: _531  and  _532
REMARK  212  A    between atoms: _531  and  _534
REMARK  213  A    between atoms: _534  and  _535
REMARK  214  A    between atoms: _540  and  _541
REMARK  215  A    between atoms: _543  and  _545
REMARK  216  A    between atoms: _545  and  _546
REMARK  217  A    between atoms: _545  and  _548
REMARK  218  A    between atoms: _548  and  _549
REMARK  219  A    between atoms: _551  and  _553
REMARK  220  A    between atoms: _553  and  _554
REMARK  221  A    between atoms: _553  and  _556
REMARK  222  A    between atoms: _556  and  _557
REMARK  223  A    between atoms: _563  and  _565
REMARK  224  A    between atoms: _565  and  _566
REMARK  225  A    between atoms: _565  and  _568
REMARK  226  A    between atoms: _568  and  _569
REMARK                            x       y       z     vdW  Elec       q    Type
REMARK                         _______ _______ _______ _____ _____    ______ ____
ROOT
ATOM      1  CB  PHE A   1      23.988  24.234  34.529  0.00  0.00    +0.051 C 
ENDROOT
BRANCH   1   2
ATOM      2  CG  PHE A   1      24.237  24.571  35.986  0.00  0.00    -0.020 A 
ATOM      3  CD2 PHE A   1      24.967  23.731  36.806  0.00  0.00    -0.004 A 
ATOM      4  CE2 PHE A   1      25.138  24.065  38.146  0.00  0.00    -0.000 A 
ATOM      5  CZ  PHE A   1      24.605  25.213  38.681  0.00  0.00    -0.000 A 
ATOM      6  CE1 PHE A   1      23.881  26.050  37.864  0.00  0.00    -0.000 A 
ATOM      7  CD1 PHE A   1      23.697  25.728  36.521  0.00  0.00    -0.004 A 
ENDBRANCH   1   2
BRANCH   1   8
ATOM      8  CA  PHE A   1      24.824  24.993  33.535  0.00  0.00    +0.137 C 
BRANCH   8   9
ATOM      9  N   PHE A   1      24.208  24.780  32.234  0.00  0.00    -0.239 NA
ATOM     10  H   PHE A   1      23.720  23.878  32.061  0.00  0.00    +0.142 HD
ENDBRANCH   8   9
BRANCH   8  11
ATOM     11  C   PHE A   1      26.288  24.517  33.563  0.00  0.00    +0.224 C 
ATOM     12  O   PHE A   1      26.974  24.638  34.592  0.00  0.00    -0.287 OA
ENDBRANCH   8  11
ENDBRANCH   1   8
TORSDOF 4
REMARK  Name = ../refined-set-2016/1rbp/1rbp_pocket.pdb
REMARK  226 active torsions:
REMARK  status: ('A' for Active; 'I' for Inactive)
REMARK    1  A    between atoms: _1  and  _3
REMARK    2  A    between atoms: _3  and  _4
REMARK    3  A    between atoms: _3  and  _6
REMARK    4  A    between atoms: _6  and  _7
REMARK    5  A    between atoms: _13  and  _15
REMARK    6  A    between atoms: _15  and  _16
REMARK    7  A    between atoms: _15  and  _18
REMARK    8  A    between atoms: _18  and  _19
REMARK    9  A    between atoms: _29  and  _31
REMARK   10  A    between atoms: _31  and  _32
REMARK   11  A    between atoms: _36  and  _37
REMARK   12  A    between atoms: _42  and  _44
REMARK   13  A    between atoms: _44  and  _45
REMARK   14  A    between atoms: _44  and  _47
REMARK   15  A    between atoms: _47  and  _48
REMARK   16  A    between atoms: _48  and  _49
REMARK   17  A    between atoms: _52  and  _54
REMARK   18  A    between atoms: _54  and  _55
REMARK   19  A    between atoms: _57  and  _59
REMARK   20  A    between atoms: _59  and  _60
REMARK   21  A    between atoms: _59  and  _62
REMARK   22  A    between atoms: _62  and  _63
REMARK   23  A    between atoms: _66  and  _68
REMARK   24  A    between atoms: _68  and  _69
REMARK   25  A    between atoms: _68  and  _71
REMARK   26  A    between atoms: _71  and  _72
REMARK   27  A    between atoms: _78  and  _80
REMARK   28  A    between atoms: _80  and  _81
REMARK   29  A    between atoms: _80  and  _83
REMARK   30  A    between atoms: _83  and  _84
REMARK   31  A    between atoms: _87  and  _89
REMARK   32  A    between atoms: _89  and  _90
REMARK   33  A    between atoms: _89  and  _92
REMARK   34  A    between atoms: _92  and  _93
REMARK   35  A    between atoms: _93  and  _94
REMARK   36  A    between atoms: _99  and  _101
REMARK   37  A    between atoms: _101  and  _102
REMARK   38  A    between atoms: _101  and  _104
REMARK   39  A    between atoms: _104  and  _105
REMARK   40  A    between atoms: _108  and  _110
REMARK   41  A    between atoms: _110  and  _111
REMARK   42  A    between atoms: _110  and  _113
REMARK   43  A    between atoms: _116  and  _118
REMARK   44  A    between atoms: _118  and  _119
REMARK   45  A    between atoms: _122  and  _124
REMARK   46  A    between atoms: _124  and  _125
REMARK   47  A    between atoms: _124  and  _127
REMARK   48  A    between atoms: _127  and  _128
REMARK   49  A    between atoms: _128  and  _129
REMARK   50  A    between atoms: _132  and  _134
REMARK   51  A    between atoms: _134  and  _135
REMARK   52  A    between atoms: _134  and  _137
REMARK   53  A    between atoms: _137  and  _138
REMARK   54  A    between atoms: _144  and  _146
REMARK   55  A    between atoms: _146  and  _147
REMARK   56  A    between atoms: _146  and  _149
REMARK   57  A    between atoms: _149  and  _150
REMARK   58  A    between atoms: _152  and  _154
REMARK   59  A    between atoms: _154  and  _155
REMARK   60  A    between atoms: _154  and  _157
REMARK   61  A    between atoms: _157  and  _158
REMARK   62  A    between atoms: _160  and  _162
REMARK   63  A    between atoms: _162  and  _163
REMARK   64  A    between atoms: _166  and  _168
REMARK   65  A    between atoms: _168  and  _169
REMARK   66  A    between atoms: _168  and  _171
REMARK   67  A    between atoms: _171  and  _172
REMARK   68  A    between atoms: _175  and  _177
REMARK   69  A    between atoms: _177  and  _178
REMARK   70  A    between atoms: _181  and  _183
REMARK   71  A    between atoms: _183  and  _184
REMARK   72  A    between atoms: _183  and  _186
REMARK   73  A    between atoms: _186  and  _187
REMARK   74  A    between atoms: _187  and  _188
REMARK   75  A    between atoms: _188  and  _189
REMARK   76  A    between atoms: _189  and  _190
REMARK   77  A    between atoms: _194  and  _196
REMARK   78  A    between atoms: _196  and  _197
REMARK   79  A    between atoms: _199  and  _201
REMARK   80  A    between atoms: _201  and  _202
REMARK   81  A    between atoms: _201  and  _204
REMARK   82  A    between atoms: _204  and  _205
REMARK   83  A    between atoms: _205  and  _206
REMARK   84  A    between atoms: _206  and  _207
REMARK   85  A    between atoms: _216  and  _218
REMARK   86  A    between atoms: _218  and  _219
REMARK   87  A    between atoms: _218  and  _221
REMARK   88  A    between atoms: _224  and  _226
REMARK   89  A    between atoms: _226  and  _227
REMARK   90  A    between atoms: _226  and  _229
REMARK   91  A    between atoms: _229  and  _230
REMARK   92  A    between atoms: _230  and  _231
REMARK   93  A    between atoms: _231  and  _232
REMARK   94  A    between atoms: _241  and  _243
REMARK   95  A    between atoms: _243  and  _244
REMARK   96  A    between atoms: _243  and  _246
REMARK   97  A    between atoms: _246  and  _247
REMARK   98  A    between atoms: _250  and  _252
REMARK   99  A    between atoms: _252  and  _253
REMARK  100  A    between atoms: _252  and  _255
REMARK  101  A    between atoms: _255  and  _256
REMARK  102  A    between atoms: _259  and  _261
REMARK  103  A    between atoms: _261  and  _262
REMARK  104  A    between atoms: _261  and  _264
REMARK  105  A    between atoms: _267  and  _269
REMARK  106  A    between atoms: _269  and  _270
REMARK  107  A    between atoms: _273  and  _275
REMARK  108  A    between atoms: _275  and  _276
REMARK  109  A    between atoms: _275  and  _278
REMARK  110  A    between atoms: _278  and  _279
REMARK  111  A    between atoms: _282  and  _284
REMARK  112  A    between atoms: _284  and  _285
REMARK  113  A    between atoms: _284  and  _287
REMARK  114  A    between atoms: _287  and  _288
REMARK  115  A    between atoms: _288  and  _289
REMARK  116  A    between atoms: _291  and  _293
REMARK  117  A    between atoms: _293  and  _294
REMARK  118  A    between atoms: _293  and  _296
REMARK  119  A    between atoms: _299  and  _301
REMARK  120  A    between atoms: _301  and  _302
REMARK  121  A    between atoms: _304  and  _306
REMARK  122  A    between atoms: _306  and  _307
REMARK  123  A    between atoms: _306  and  _309
REMARK  124  A    between atoms: _309  and  _310
REMARK  125  A    between atoms: _313  and  _315
REMARK  126  A    between atoms: _315  and  _316
REMARK  127  A    between atoms: _315  and  _318
REMARK  128  A    between atoms: _318  and  _319
REMARK  129  A    between atoms: _325  and  _327
REMARK  130  A    between atoms: _327  and  _328
REMARK  131  A    between atoms: _327  and  _330
REMARK  132  A    between atoms: _330  and  _331
REMARK  133  A    between atoms: _331  and  _332
REMARK  134  A    between atoms: _334  and  _336
REMARK  135  A    between atoms: _336  and  _337
REMARK  136  A    between atoms: _336  and  _339
REMARK  137  A    between atoms: _339  and  _340
REMARK  138  A    between atoms: _340  and  _341
REMARK  139  A    between atoms: _341  and  _342
REMARK  140  A    between atoms: _342  and  _343
REMARK  141  A    between atoms: _347  and  _349
REMARK  142  A    between atoms: _349  and  _350
REMARK  143  A    between atoms: _349  and  _352
REMARK  144  A    between atoms: _352  and  _353
REMARK  145  A    between atoms: _358  and  _359
REMARK  146  A    between atoms: _361  and  _363
REMARK  147  A    between atoms: _363  and  _364
REMARK  148  A    between atoms: _363  and  _366
REMARK  149  A    between atoms: _366  and  _367
REMARK  150  A    between atoms: _377  and  _379
REMARK  151  A    between atoms: _379  and  _380
REMARK  152  A    between atoms: _382  and  _384
REMARK  153  A    between atoms: _384  and  _385
REMARK  154  A    between atoms: _384  and  _387
REMARK  155  A    between atoms: _387  and  _388
REMARK  156  A    between atoms: _394  and  _396
REMARK  157  A    between atoms: _396  and  _397
REMARK  158  A    between atoms: _396  and  _399
REMARK  159  A    between atoms: _399  and  _400
REMARK  160  A    between atoms: _403  and  _405
REMARK  161  A    between atoms: _405  and  _406
REMARK  162  A    between atoms: _405  and  _408
REMARK  163  A    between atoms: _408  and  _409
REMARK  164  A    between atoms: _409  and  _410
REMARK  165  A    between atoms: _415  and  _417
REMARK  166  A    between atoms: _417  and  _418
REMARK  167  A    between atoms: _417  and  _420
REMARK  168  A    between atoms: _420  and  _421
REMARK  169  A    between atoms: _421  and  _422
REMARK  170  A    between atoms: _422  and  _423
REMARK  171  A    between atoms: _423  and  _424
REMARK  172  A    between atoms: _428  and  _430
REMARK  173  A    between atoms: _430  and  _431
REMARK  174  A    between atoms: _433  and  _435
REMARK  175  A    between atoms: _435  and  _436
REMARK  176  A    between atoms: _435  and  _438
REMARK  177  A    between atoms: _438  and  _439
REMARK  178  A    between atoms: _442  and  _444
REMARK  179  A    between atoms: _444  and  _445
REMARK  180  A    between atoms: _444  and  _447
REMARK  181  A    between atoms: _447  and  _448
REMARK  182  A    between atoms: _451  and  _453
REMARK  183  A    between atoms: _453  and  _454
REMARK  184  A    between atoms: _453  and  _456
REMARK  185  A    between atoms: _456  and  _457
REMARK  186  A    between atoms: _462  and  _464
REMARK  187  A    between atoms: _464  and  _465
REMARK  188  A    between atoms: _464  and  _467
REMARK  189  A    between atoms: _467  and  _468
REMARK  190  A    between atoms: _478  and  _480
REMARK  191  A    between atoms: _480  and  _481
REMARK  192  A    between atoms: _480  and  _483
REMARK  193  A    between atoms: _483  and  _484
REMARK  194  A    between atoms: _484  and  _485
REMARK  195  A    between atoms: _490  and  _492
REMARK  196  A    between atoms: _492  and  _493
REMARK  197  A    between atoms: _492  and  _495
REMARK  198  A    between atoms: _495  and  _496
REMARK  199  A    between atoms: _501  and  _502
REMARK  200  A    between atoms: _504  and  _506
REMARK  201  A    between atoms: _506  and  _507
REMARK  202  A    between atoms: _506  and  _509
REMARK  203  A    between atoms: _509  and  _510
REMARK  204  A    between atoms: _512  and  _514
REMARK  205  A    between atoms: _514  and  _515
REMARK  206  A    between atoms: _514  and  _517
REMARK  207  A    between atoms: _517  and  _518
REMARK  208  A    between atoms: _518  and  _519
REMARK  209  A    between atoms: _519  and  _520
REMARK  210  A    between atoms: _529  and  _531
REMARK  211  A    between atoms: _531  and  _532
REMARK  212  A    between atoms: _531  and  _534
REMARK  213  A    between atoms: _534  and  _535
REMARK  214  A    between atoms: _540  and  _541
REMARK  215  A    between atoms: _543  and  _545
REMARK  216  A    between atoms: _545  and  _546
REMARK  217  A    between atoms: _545  and  _548
REMARK  218  A    between atoms: _548  and  _549
REMARK  219  A    between atoms: _551  and  _553
REMARK  220  A    between atoms: _553  and  _554
REMARK  221  A    between atoms: _553  and  _556
REMARK  222  A    between atoms: _556  and  _557
REMARK  223  A    between atoms: _563  and  _565
REMARK  224  A    between atoms: _565  and  _566
REMARK  225  A    between atoms: _565  and  _568
REMARK  226  A    between atoms: _568  and  _569
REMARK                            x       y       z     vdW  Elec       q    Type
REMARK                         _______ _______ _______ _____ _____    ______ ____
ROOT
ATOM      1  CG  TRP A   1      28.698  27.809  38.080  0.00  0.00    -0.002 A 
ATOM      2  CD2 TRP A   1      27.800  28.820  37.828  0.00  0.00    +0.013 A 
ATOM      3  CE3 TRP A   1      27.607  30.113  38.234  0.00  0.00    +0.001 A 
ATOM      4  CZ3 TRP A   1      26.550  30.803  37.702  0.00  0.00    +0.000 A 
ATOM      5  CH2 TRP A   1      25.703  30.207  36.782  0.00  0.00    +0.001 A 
ATOM      6  CZ2 TRP A   1      25.893  28.907  36.372  0.00  0.00    +0.017 A 
ATOM      7  CE2 TRP A   1      26.954  28.221  36.907  0.00  0.00    +0.056 A 
ATOM      8  NE1 TRP A   1      27.372  26.961  36.660  0.00  0.00    -0.352 N 
ATOM      9  HE1 TRP A   1      26.905  26.303  36.004  0.00  0.00    +0.166 HD
ATOM     10  CD1 TRP A   1      28.447  26.677  37.359  0.00  0.00    +0.068 A 
ENDROOT
BRANCH   1  11
ATOM     11  CB  TRP A   1      29.797  27.848  39.109  0.00  0.00    +0.053 C 
BRANCH  11  12
ATOM     12  CA  TRP A   1      30.975  28.637  38.690  0.00  0.00    +0.137 C 
BRANCH  12  13
ATOM     13  N   TRP A   1      31.750  27.845  37.762  0.00  0.00    -0.239 NA
ATOM     14  H   TRP A   1      32.136  26.932  38.076  0.00  0.00    +0.142 HD
ENDBRANCH  12  13
BRANCH  12  15
ATOM     15  C   TRP A   1      31.866  28.944  39.890  0.00  0.00    +0.224 C 
ATOM     16  O   TRP A   1      32.571  28.101  40.441  0.00  0.00    -0.287 OA
ENDBRANCH  12  15
ENDBRANCH  11  12
ENDBRANCH   1  11
TORSDOF 4
REMARK  Name = ../refined-set-2016/1rbp/1rbp_pocket.pdb
REMARK  226 active torsions:
REMARK  status: ('A' for Active; 'I' for Inactive)
REMARK    1  A    between atoms: _1  and  _3
REMARK    2  A    between atoms: _3  and  _4
REMARK    3  A    between atoms: _3  and  _6
REMARK    4  A    between atoms: _6  and  _7
REMARK    5  A    between atoms: _13  and  _15
REMARK    6  A    between atoms: _15  and  _16
REMARK    7  A    between atoms: _15  and  _18
REMARK    8  A    between atoms: _18  and  _19
REMARK    9  A    between atoms: _29  and  _31
REMARK   10  A    between atoms: _31  and  _32
REMARK   11  A    between atoms: _36  and  _37
REMARK   12  A    between atoms: _42  and  _44
REMARK   13  A    between atoms: _44  and  _45
REMARK   14  A    between atoms: _44  and  _47
REMARK   15  A    between atoms: _47  and  _48
REMARK   16  A    between atoms: _48  and  _49
REMARK   17  A    between atoms: _52  and  _54
REMARK   18  A    between atoms: _54  and  _55
REMARK   19  A    between atoms: _57  and  _59
REMARK   20  A    between atoms: _59  and  _60
REMARK   21  A    between atoms: _59  and  _62
REMARK   22  A    between atoms: _62  and  _63
REMARK   23  A    between atoms: _66  and  _68
REMARK   24  A    between atoms: _68  and  _69
REMARK   25  A    between atoms: _68  and  _71
REMARK   26  A    between atoms: _71  and  _72
REMARK   27  A    between atoms: _78  and  _80
REMARK   28  A    between atoms: _80  and  _81
REMARK   29  A    between atoms: _80  and  _83
REMARK   30  A    between atoms: _83  and  _84
REMARK   31  A    between atoms: _87  and  _89
REMARK   32  A    between atoms: _89  and  _90
REMARK   33  A    between atoms: _89  and  _92
REMARK   34  A    between atoms: _92  and  _93
REMARK   35  A    between atoms: _93  and  _94
REMARK   36  A    between atoms: _99  and  _101
REMARK   37  A    between atoms: _101  and  _102
REMARK   38  A    between atoms: _101  and  _104
REMARK   39  A    between atoms: _104  and  _105
REMARK   40  A    between atoms: _108  and  _110
REMARK   41  A    between atoms: _110  and  _111
REMARK   42  A    between atoms: _110  and  _113
REMARK   43  A    between atoms: _116  and  _118
REMARK   44  A    between atoms: _118  and  _119
REMARK   45  A    between atoms: _122  and  _124
REMARK   46  A    between atoms: _124  and  _125
REMARK   47  A    between atoms: _124  and  _127
REMARK   48  A    between atoms: _127  and  _128
REMARK   49  A    between atoms: _128  and  _129
REMARK   50  A    between atoms: _132  and  _134
REMARK   51  A    between atoms: _134  and  _135
REMARK   52  A    between atoms: _134  and  _137
REMARK   53  A    between atoms: _137  and  _138
REMARK   54  A    between atoms: _144  and  _146
REMARK   55  A    between atoms: _146  and  _147
REMARK   56  A    between atoms: _146  and  _149
REMARK   57  A    between atoms: _149  and  _150
REMARK   58  A    between atoms: _152  and  _154
REMARK   59  A    between atoms: _154  and  _155
REMARK   60  A    between atoms: _154  and  _157
REMARK   61  A    between atoms: _157  and  _158
REMARK   62  A    between atoms: _160  and  _162
REMARK   63  A    between atoms: _162  and  _163
REMARK   64  A    between atoms: _166  and  _168
REMARK   65  A    between atoms: _168  and  _169
REMARK   66  A    between atoms: _168  and  _171
REMARK   67  A    between atoms: _171  and  _172
REMARK   68  A    between atoms: _175  and  _177
REMARK   69  A    between atoms: _177  and  _178
REMARK   70  A    between atoms: _181  and  _183
REMARK   71  A    between atoms: _183  and  _184
REMARK   72  A    between atoms: _183  and  _186
REMARK   73  A    between atoms: _186  and  _187
REMARK   74  A    between atoms: _187  and  _188
REMARK   75  A    between atoms: _188  and  _189
REMARK   76  A    between atoms: _189  and  _190
REMARK   77  A    between atoms: _194  and  _196
REMARK   78  A    between atoms: _196  and  _197
REMARK   79  A    between atoms: _199  and  _201
REMARK   80  A    between atoms: _201  and  _202
REMARK   81  A    between atoms: _201  and  _204
REMARK   82  A    between atoms: _204  and  _205
REMARK   83  A    between atoms: _205  and  _206
REMARK   84  A    between atoms: _206  and  _207
REMARK   85  A    between atoms: _216  and  _218
REMARK   86  A    between atoms: _218  and  _219
REMARK   87  A    between atoms: _218  and  _221
REMARK   88  A    between atoms: _224  and  _226
REMARK   89  A    between atoms: _226  and  _227
REMARK   90  A    between atoms: _226  and  _229
REMARK   91  A    between atoms: _229  and  _230
REMARK   92  A    between atoms: _230  and  _231
REMARK   93  A    between atoms: _231  and  _232
REMARK   94  A    between atoms: _241  and  _243
REMARK   95  A    between atoms: _243  and  _244
REMARK   96  A    between atoms: _243  and  _246
REMARK   97  A    between atoms: _246  and  _247
REMARK   98  A    between atoms: _250  and  _252
REMARK   99  A    between atoms: _252  and  _253
REMARK  100  A    between atoms: _252  and  _255
REMARK  101  A    between atoms: _255  and  _256
REMARK  102  A    between atoms: _259  and  _261
REMARK  103  A    between atoms: _261  and  _262
REMARK  104  A    between atoms: _261  and  _264
REMARK  105  A    between atoms: _267  and  _269
REMARK  106  A    between atoms: _269  and  _270
REMARK  107  A    between atoms: _273  and  _275
REMARK  108  A    between atoms: _275  and  _276
REMARK  109  A    between atoms: _275  and  _278
REMARK  110  A    between atoms: _278  and  _279
REMARK  111  A    between atoms: _282  and  _284
REMARK  112  A    between atoms: _284  and  _285
REMARK  113  A    between atoms: _284  and  _287
REMARK  114  A    between atoms: _287  and  _288
REMARK  115  A    between atoms: _288  and  _289
REMARK  116  A    between atoms: _291  and  _293
REMARK  117  A    between atoms: _293  and  _294
REMARK  118  A    between atoms: _293  and  _296
REMARK  119  A    between atoms: _299  and  _301
REMARK  120  A    between atoms: _301  and  _302
REMARK  121  A    between atoms: _304  and  _306
REMARK  122  A    between atoms: _306  and  _307
REMARK  123  A    between atoms: _306  and  _309
REMARK  124  A    between atoms: _309  and  _310
REMARK  125  A    between atoms: _313  and  _315
REMARK  126  A    between atoms: _315  and  _316
REMARK  127  A    between atoms: _315  and  _318
REMARK  128  A    between atoms: _318  and  _319
REMARK  129  A    between atoms: _325  and  _327
REMARK  130  A    between atoms: _327  and  _328
REMARK  131  A    between atoms: _327  and  _330
REMARK  132  A    between atoms: _330  and  _331
REMARK  133  A    between atoms: _331  and  _332
REMARK  134  A    between atoms: _334  and  _336
REMARK  135  A    between atoms: _336  and  _337
REMARK  136  A    between atoms: _336  and  _339
REMARK  137  A    between atoms: _339  and  _340
REMARK  138  A    between atoms: _340  and  _341
REMARK  139  A    between atoms: _341  and  _342
REMARK  140  A    between atoms: _342  and  _343
REMARK  141  A    between atoms: _347  and  _349
REMARK  142  A    between atoms: _349  and  _350
REMARK  143  A    between atoms: _349  and  _352
REMARK  144  A    between atoms: _352  and  _353
REMARK  145  A    between atoms: _358  and  _359
REMARK  146  A    between atoms: _361  and  _363
REMARK  147  A    between atoms: _363  and  _364
REMARK  148  A    between atoms: _363  and  _366
REMARK  149  A    between atoms: _366  and  _367
REMARK  150  A    between atoms: _377  and  _379
REMARK  151  A    between atoms: _379  and  _380
REMARK  152  A    between atoms: _382  and  _384
REMARK  153  A    between atoms: _384  and  _385
REMARK  154  A    between atoms: _384  and  _387
REMARK  155  A    between atoms: _387  and  _388
REMARK  156  A    between atoms: _394  and  _396
REMARK  157  A    between atoms: _396  and  _397
REMARK  158  A    between atoms: _396  and  _399
REMARK  159  A    between atoms: _399  and  _400
REMARK  160  A    between atoms: _403  and  _405
REMARK  161  A    between atoms: _405  and  _406
REMARK  162  A    between atoms: _405  and  _408
REMARK  163  A    between atoms: _408  and  _409
REMARK  164  A    between atoms: _409  and  _410
REMARK  165  A    between atoms: _415  and  _417
REMARK  166  A    between atoms: _417  and  _418
REMARK  167  A    between atoms: _417  and  _420
REMARK  168  A    between atoms: _420  and  _421
REMARK  169  A    between atoms: _421  and  _422
REMARK  170  A    between atoms: _422  and  _423
REMARK  171  A    between atoms: _423  and  _424
REMARK  172  A    between atoms: _428  and  _430
REMARK  173  A    between atoms: _430  and  _431
REMARK  174  A    between atoms: _433  and  _435
REMARK  175  A    between atoms: _435  and  _436
REMARK  176  A    between atoms: _435  and  _438
REMARK  177  A    between atoms: _438  and  _439
REMARK  178  A    between atoms: _442  and  _444
REMARK  179  A    between atoms: _444  and  _445
REMARK  180  A    between atoms: _444  and  _447
REMARK  181  A    between atoms: _447  and  _448
REMARK  182  A    between atoms: _451  and  _453
REMARK  183  A    between atoms: _453  and  _454
REMARK  184  A    between atoms: _453  and  _456
REMARK  185  A    between atoms: _456  and  _457
REMARK  186  A    between atoms: _462  and  _464
REMARK  187  A    between atoms: _464  and  _465
REMARK  188  A    between atoms: _464  and  _467
REMARK  189  A    between atoms: _467  and  _468
REMARK  190  A    between atoms: _478  and  _480
REMARK  191  A    between atoms: _480  and  _481
REMARK  192  A    between atoms: _480  and  _483
REMARK  193  A    between atoms: _483  and  _484
REMARK  194  A    between atoms: _484  and  _485
REMARK  195  A    between atoms: _490  and  _492
REMARK  196  A    between atoms: _492  and  _493
REMARK  197  A    between atoms: _492  and  _495
REMARK  198  A    between atoms: _495  and  _496
REMARK  199  A    between atoms: _501  and  _502
REMARK  200  A    between atoms: _504  and  _506
REMARK  201  A    between atoms: _506  and  _507
REMARK  202  A    between atoms: _506  and  _509
REMARK  203  A    between atoms: _509  and  _510
REMARK  204  A    between atoms: _512  and  _514
REMARK  205  A    between atoms: _514  and  _515
REMARK  206  A    between atoms: _514  and  _517
REMARK  207  A    between atoms: _517  and  _518
REMARK  208  A    between atoms: _518  and  _519
REMARK  209  A    between atoms: _519  and  _520
REMARK  210  A    between atoms: _529  and  _531
REMARK  211  A    between atoms: _531  and  _532
REMARK  212  A    between atoms: _531  and  _534
REMARK  213  A    between atoms: _534  and  _535
REMARK  214  A    between atoms: _540  and  _541
REMARK  215  A    between atoms: _543  and  _545
REMARK  216  A    between atoms: _545  and  _546
REMARK  217  A    between atoms: _545  and  _548
REMARK  218  A    between atoms: _548  and  _549
REMARK  219  A    between atoms: _551  and  _553
REMARK  220  A    between atoms: _553  and  _554
REMARK  221  A    between atoms: _553  and  _556
REMARK  222  A    between atoms: _556  and  _557
REMARK  223  A    between atoms: _563  and  _565
REMARK  224  A    between atoms: _565  and  _566
REMARK  225  A    between atoms: _565  and  _568
REMARK  226  A    between atoms: _568  and  _569
REMARK                            x       y       z     vdW  Elec       q    Type
REMARK                         _______ _______ _______ _____ _____    ______ ____
ROOT
ATOM      1  CA  ALA A   1      31.121  30.543  44.820  0.00  0.00    +0.133 C 
ATOM      2  CB  ALA A   1      31.324  29.413  45.823  0.00  0.00    +0.027 C 
ENDROOT
BRANCH   1   3
ATOM      3  N   ALA A   1      31.989  30.315  43.699  0.00  0.00    -0.239 NA
ATOM      4  H   ALA A   1      32.806  29.676  43.773  0.00  0.00    +0.142 HD
ENDBRANCH   1   3
BRANCH   1   5
ATOM      5  C   ALA A   1      31.427  31.917  45.435  0.00  0.00    +0.224 C 
ATOM      6  O   ALA A   1      32.574  32.303  45.666  0.00  0.00    -0.287 OA
ENDBRANCH   1   5
TORSDOF 2
REMARK  Name = ../refined-set-2016/1rbp/1rbp_pocket.pdb
REMARK  226 active torsions:
REMARK  status: ('A' for Active; 'I' for Inactive)
REMARK    1  A    between atoms: _1  and  _3
REMARK    2  A    between atoms: _3  and  _4
REMARK    3  A    between atoms: _3  and  _6
REMARK    4  A    between atoms: _6  and  _7
REMARK    5  A    between atoms: _13  and  _15
REMARK    6  A    between atoms: _15  and  _16
REMARK    7  A    between atoms: _15  and  _18
REMARK    8  A    between atoms: _18  and  _19
REMARK    9  A    between atoms: _29  and  _31
REMARK   10  A    between atoms: _31  and  _32
REMARK   11  A    between atoms: _36  and  _37
REMARK   12  A    between atoms: _42  and  _44
REMARK   13  A    between atoms: _44  and  _45
REMARK   14  A    between atoms: _44  and  _47
REMARK   15  A    between atoms: _47  and  _48
REMARK   16  A    between atoms: _48  and  _49
REMARK   17  A    between atoms: _52  and  _54
REMARK   18  A    between atoms: _54  and  _55
REMARK   19  A    between atoms: _57  and  _59
REMARK   20  A    between atoms: _59  and  _60
REMARK   21  A    between atoms: _59  and  _62
REMARK   22  A    between atoms: _62  and  _63
REMARK   23  A    between atoms: _66  and  _68
REMARK   24  A    between atoms: _68  and  _69
REMARK   25  A    between atoms: _68  and  _71
REMARK   26  A    between atoms: _71  and  _72
REMARK   27  A    between atoms: _78  and  _80
REMARK   28  A    between atoms: _80  and  _81
REMARK   29  A    between atoms: _80  and  _83
REMARK   30  A    between atoms: _83  and  _84
REMARK   31  A    between atoms: _87  and  _89
REMARK   32  A    between atoms: _89  and  _90
REMARK   33  A    between atoms: _89  and  _92
REMARK   34  A    between atoms: _92  and  _93
REMARK   35  A    between atoms: _93  and  _94
REMARK   36  A    between atoms: _99  and  _101
REMARK   37  A    between atoms: _101  and  _102
REMARK   38  A    between atoms: _101  and  _104
REMARK   39  A    between atoms: _104  and  _105
REMARK   40  A    between atoms: _108  and  _110
REMARK   41  A    between atoms: _110  and  _111
REMARK   42  A    between atoms: _110  and  _113
REMARK   43  A    between atoms: _116  and  _118
REMARK   44  A    between atoms: _118  and  _119
REMARK   45  A    between atoms: _122  and  _124
REMARK   46  A    between atoms: _124  and  _125
REMARK   47  A    between atoms: _124  and  _127
REMARK   48  A    between atoms: _127  and  _128
REMARK   49  A    between atoms: _128  and  _129
REMARK   50  A    between atoms: _132  and  _134
REMARK   51  A    between atoms: _134  and  _135
REMARK   52  A    between atoms: _134  and  _137
REMARK   53  A    between atoms: _137  and  _138
REMARK   54  A    between atoms: _144  and  _146
REMARK   55  A    between atoms: _146  and  _147
REMARK   56  A    between atoms: _146  and  _149
REMARK   57  A    between atoms: _149  and  _150
REMARK   58  A    between atoms: _152  and  _154
REMARK   59  A    between atoms: _154  and  _155
REMARK   60  A    between atoms: _154  and  _157
REMARK   61  A    between atoms: _157  and  _158
REMARK   62  A    between atoms: _160  and  _162
REMARK   63  A    between atoms: _162  and  _163
REMARK   64  A    between atoms: _166  and  _168
REMARK   65  A    between atoms: _168  and  _169
REMARK   66  A    between atoms: _168  and  _171
REMARK   67  A    between atoms: _171  and  _172
REMARK   68  A    between atoms: _175  and  _177
REMARK   69  A    between atoms: _177  and  _178
REMARK   70  A    between atoms: _181  and  _183
REMARK   71  A    between atoms: _183  and  _184
REMARK   72  A    between atoms: _183  and  _186
REMARK   73  A    between atoms: _186  and  _187
REMARK   74  A    between atoms: _187  and  _188
REMARK   75  A    between atoms: _188  and  _189
REMARK   76  A    between atoms: _189  and  _190
REMARK   77  A    between atoms: _194  and  _196
REMARK   78  A    between atoms: _196  and  _197
REMARK   79  A    between atoms: _199  and  _201
REMARK   80  A    between atoms: _201  and  _202
REMARK   81  A    between atoms: _201  and  _204
REMARK   82  A    between atoms: _204  and  _205
REMARK   83  A    between atoms: _205  and  _206
REMARK   84  A    between atoms: _206  and  _207
REMARK   85  A    between atoms: _216  and  _218
REMARK   86  A    between atoms: _218  and  _219
REMARK   87  A    between atoms: _218  and  _221
REMARK   88  A    between atoms: _224  and  _226
REMARK   89  A    between atoms: _226  and  _227
REMARK   90  A    between atoms: _226  and  _229
REMARK   91  A    between atoms: _229  and  _230
REMARK   92  A    between atoms: _230  and  _231
REMARK   93  A    between atoms: _231  and  _232
REMARK   94  A    between atoms: _241  and  _243
REMARK   95  A    between atoms: _243  and  _244
REMARK   96  A    between atoms: _243  and  _246
REMARK   97  A    between atoms: _246  and  _247
REMARK   98  A    between atoms: _250  and  _252
REMARK   99  A    between atoms: _252  and  _253
REMARK  100  A    between atoms: _252  and  _255
REMARK  101  A    between atoms: _255  and  _256
REMARK  102  A    between atoms: _259  and  _261
REMARK  103  A    between atoms: _261  and  _262
REMARK  104  A    between atoms: _261  and  _264
REMARK  105  A    between atoms: _267  and  _269
REMARK  106  A    between atoms: _269  and  _270
REMARK  107  A    between atoms: _273  and  _275
REMARK  108  A    between atoms: _275  and  _276
REMARK  109  A    between atoms: _275  and  _278
REMARK  110  A    between atoms: _278  and  _279
REMARK  111  A    between atoms: _282  and  _284
REMARK  112  A    between atoms: _284  and  _285
REMARK  113  A    between atoms: _284  and  _287
REMARK  114  A    between atoms: _287  and  _288
REMARK  115  A    between atoms: _288  and  _289
REMARK  116  A    between atoms: _291  and  _293
REMARK  117  A    between atoms: _293  and  _294
REMARK  118  A    between atoms: _293  and  _296
REMARK  119  A    between atoms: _299  and  _301
REMARK  120  A    between atoms: _301  and  _302
REMARK  121  A    between atoms: _304  and  _306
REMARK  122  A    between atoms: _306  and  _307
REMARK  123  A    between atoms: _306  and  _309
REMARK  124  A    between atoms: _309  and  _310
REMARK  125  A    between atoms: _313  and  _315
REMARK  126  A    between atoms: _315  and  _316
REMARK  127  A    between atoms: _315  and  _318
REMARK  128  A    between atoms: _318  and  _319
REMARK  129  A    between atoms: _325  and  _327
REMARK  130  A    between atoms: _327  and  _328
REMARK  131  A    between atoms: _327  and  _330
REMARK  132  A    between atoms: _330  and  _331
REMARK  133  A    between atoms: _331  and  _332
REMARK  134  A    between atoms: _334  and  _336
REMARK  135  A    between atoms: _336  and  _337
REMARK  136  A    between atoms: _336  and  _339
REMARK  137  A    between atoms: _339  and  _340
REMARK  138  A    between atoms: _340  and  _341
REMARK  139  A    between atoms: _341  and  _342
REMARK  140  A    between atoms: _342  and  _343
REMARK  141  A    between atoms: _347  and  _349
REMARK  142  A    between atoms: _349  and  _350
REMARK  143  A    between atoms: _349  and  _352
REMARK  144  A    between atoms: _352  and  _353
REMARK  145  A    between atoms: _358  and  _359
REMARK  146  A    between atoms: _361  and  _363
REMARK  147  A    between atoms: _363  and  _364
REMARK  148  A    between atoms: _363  and  _366
REMARK  149  A    between atoms: _366  and  _367
REMARK  150  A    between atoms: _377  and  _379
REMARK  151  A    between atoms: _379  and  _380
REMARK  152  A    between atoms: _382  and  _384
REMARK  153  A    between atoms: _384  and  _385
REMARK  154  A    between atoms: _384  and  _387
REMARK  155  A    between atoms: _387  and  _388
REMARK  156  A    between atoms: _394  and  _396
REMARK  157  A    between atoms: _396  and  _397
REMARK  158  A    between atoms: _396  and  _399
REMARK  159  A    between atoms: _399  and  _400
REMARK  160  A    between atoms: _403  and  _405
REMARK  161  A    between atoms: _405  and  _406
REMARK  162  A    between atoms: _405  and  _408
REMARK  163  A    between atoms: _408  and  _409
REMARK  164  A    between atoms: _409  and  _410
REMARK  165  A    between atoms: _415  and  _417
REMARK  166  A    between atoms: _417  and  _418
REMARK  167  A    between atoms: _417  and  _420
REMARK  168  A    between atoms: _420  and  _421
REMARK  169  A    between atoms: _421  and  _422
REMARK  170  A    between atoms: _422  and  _423
REMARK  171  A    between atoms: _423  and  _424
REMARK  172  A    between atoms: _428  and  _430
REMARK  173  A    between atoms: _430  and  _431
REMARK  174  A    between atoms: _433  and  _435
REMARK  175  A    between atoms: _435  and  _436
REMARK  176  A    between atoms: _435  and  _438
REMARK  177  A    between atoms: _438  and  _439
REMARK  178  A    between atoms: _442  and  _444
REMARK  179  A    between atoms: _444  and  _445
REMARK  180  A    between atoms: _444  and  _447
REMARK  181  A    between atoms: _447  and  _448
REMARK  182  A    between atoms: _451  and  _453
REMARK  183  A    between atoms: _453  and  _454
REMARK  184  A    between atoms: _453  and  _456
REMARK  185  A    between atoms: _456  and  _457
REMARK  186  A    between atoms: _462  and  _464
REMARK  187  A    between atoms: _464  and  _465
REMARK  188  A    between atoms: _464  and  _467
REMARK  189  A    between atoms: _467  and  _468
REMARK  190  A    between atoms: _478  and  _480
REMARK  191  A    between atoms: _480  and  _481
REMARK  192  A    between atoms: _480  and  _483
REMARK  193  A    between atoms: _483  and  _484
REMARK  194  A    between atoms: _484  and  _485
REMARK  195  A    between atoms: _490  and  _492
REMARK  196  A    between atoms: _492  and  _493
REMARK  197  A    between atoms: _492  and  _495
REMARK  198  A    between atoms: _495  and  _496
REMARK  199  A    between atoms: _501  and  _502
REMARK  200  A    between atoms: _504  and  _506
REMARK  201  A    between atoms: _506  and  _507
REMARK  202  A    between atoms: _506  and  _509
REMARK  203  A    between atoms: _509  and  _510
REMARK  204  A    between atoms: _512  and  _514
REMARK  205  A    between atoms: _514  and  _515
REMARK  206  A    between atoms: _514  and  _517
REMARK  207  A    between atoms: _517  and  _518
REMARK  208  A    between atoms: _518  and  _519
REMARK  209  A    between atoms: _519  and  _520
REMARK  210  A    between atoms: _529  and  _531
REMARK  211  A    between atoms: _531  and  _532
REMARK  212  A    between atoms: _531  and  _534
REMARK  213  A    between atoms: _534  and  _535
REMARK  214  A    between atoms: _540  and  _541
REMARK  215  A    between atoms: _543  and  _545
REMARK  216  A    between atoms: _545  and  _546
REMARK  217  A    between atoms: _545  and  _548
REMARK  218  A    between atoms: _548  and  _549
REMARK  219  A    between atoms: _551  and  _553
REMARK  220  A    between atoms: _553  and  _554
REMARK  221  A    between atoms: _553  and  _556
REMARK  222  A    between atoms: _556  and  _557
REMARK  223  A    between atoms: _563  and  _565
REMARK  224  A    between atoms: _565  and  _566
REMARK  225  A    between atoms: _565  and  _568
REMARK  226  A    between atoms: _568  and  _569
REMARK                            x       y       z     vdW  Elec       q    Type
REMARK                         _______ _______ _______ _____ _____    ______ ____
ROOT
ATOM      1  C   LEU A   4      32.843  20.527  57.165  0.00  0.00    +0.241 C 
ATOM      2  N   PHE A   5      33.285  21.648  56.583  0.00  0.00    -0.297 N 
ATOM      3  H   PHE A   5      33.933  22.270  57.107  0.00  0.00    +0.150 HD
ATOM      4  O   LEU A   4      32.099  19.743  56.570  0.00  0.00    -0.273 OA
ENDROOT
BRANCH   1   5
ATOM      5  CA  LEU A   4      33.311  20.275  58.611  0.00  0.00    +0.149 C 
BRANCH   5   7
ATOM      6  C   GLY A   3      31.267  20.819  59.886  0.00  0.00    +0.243 C 
ATOM      7  N   LEU A   4      32.279  19.998  59.594  0.00  0.00    -0.297 N 
ATOM      8  H   LEU A   4      32.332  19.095  60.108  0.00  0.00    +0.150 HD
ATOM      9  O   GLY A   3      31.015  21.903  59.325  0.00  0.00    -0.273 OA
BRANCH   6  10
ATOM     10  CA  GLY A   3      30.425  20.203  60.994  0.00  0.00    +0.176 C 
BRANCH  10  12
ATOM     11  C   GLU A   2      28.153  20.626  60.279  0.00  0.00    +0.241 C 
ATOM     12  N   GLY A   3      29.113  20.784  61.176  0.00  0.00    -0.295 N 
ATOM     13  H   GLY A   3      28.919  21.340  62.033  0.00  0.00    +0.150 HD
ATOM     14  O   GLU A   2      28.328  19.994  59.245  0.00  0.00    -0.273 OA
BRANCH  11  15
ATOM     15  CA  GLU A   2      26.837  21.315  60.548  0.00  0.00    +0.149 C 
BRANCH  15  17
ATOM     16  C   PRO A   1      26.612  22.723  58.581  0.00  0.00    +0.239 C 
ATOM     17  N   GLU A   2      26.272  21.617  59.249  0.00  0.00    -0.297 N 
ATOM     18  H   GLU A   2      25.587  20.958  58.827  0.00  0.00    +0.150 HD
ATOM     19  O   PRO A   1      27.484  23.496  58.995  0.00  0.00    -0.274 OA
BRANCH  16  21
ATOM     20  N   PRO A   1      26.783  23.934  56.539  0.00  0.00    -0.210 NA
ATOM     21  CA  PRO A   1      25.993  22.924  57.213  0.00  0.00    +0.149 C 
ATOM     22  CB  PRO A   1      26.099  21.756  56.289  0.00  0.00    +0.028 C 
ATOM     23  CG  PRO A   1      27.543  21.824  55.896  0.00  0.00    +0.021 C 
ATOM     24  CD  PRO A   1      27.864  23.313  55.804  0.00  0.00    +0.089 C 
ENDBRANCH  16  21
ENDBRANCH  15  17
BRANCH  15  25
ATOM     25  CB  GLU A   2      25.896  20.415  61.307  0.00  0.00    +0.041 C 
BRANCH  25  26
ATOM     26  CG  GLU A   2      25.946  20.663  62.808  0.00  0.00    +0.116 C 
BRANCH  26  27
ATOM     27  CD  GLU A   2      25.044  19.733  63.619  0.00  0.00    +0.365 C 
ATOM     28  OE2 GLU A   2      24.222  20.253  64.397  0.00  0.00    -0.246 OA
ATOM     29  OE1 GLU A   2      25.191  18.501  63.480  0.00  0.00    -0.246 OA
ENDBRANCH  26  27
ENDBRANCH  25  26
ENDBRANCH  15  25
ENDBRANCH  11  15
ENDBRANCH  10  12
ENDBRANCH   6  10
ENDBRANCH   5   7
BRANCH   5  30
ATOM     30  CB  LEU A   4      34.267  19.092  58.730  0.00  0.00    +0.029 C 
BRANCH  30  31
ATOM     31  CG  LEU A   4      35.620  19.081  58.059  0.00  0.00    +0.002 C 
ATOM     32  CD2 LEU A   4      36.658  19.874  58.847  0.00  0.00    +0.000 C 
ATOM     33  CD1 LEU A   4      36.052  17.639  57.986  0.00  0.00    +0.000 C 
ENDBRANCH  30  31
ENDBRANCH   5  30
ENDBRANCH   1   5
BRANCH   2  34
ATOM     34  CA  PHE A   5      32.883  22.017  55.238  0.00  0.00    +0.153 C 
BRANCH  34  35
ATOM     35  C   PHE A   5      34.024  22.812  54.633  0.00  0.00    +0.241 C 
ATOM     36  O   PHE A   5      35.011  23.066  55.312  0.00  0.00    -0.273 OA
ATOM     37  N   LEU A   6      33.951  23.130  53.332  0.00  0.00    -0.297 N 
ATOM     38  H   LEU A   6      33.133  22.781  52.793  0.00  0.00    +0.150 HD
BRANCH  37  39
ATOM     39  CA  LEU A   6      34.945  23.936  52.617  0.00  0.00    +0.149 C 
BRANCH  39  40
ATOM     40  C   LEU A   6      34.826  25.370  53.068  0.00  0.00    +0.241 C 
ATOM     41  N   GLN A   7      35.954  25.983  53.371  0.00  0.00    -0.298 N 
ATOM     42  H   GLN A   7      36.844  25.451  53.287  0.00  0.00    +0.150 HD
ATOM     43  O   LEU A   6      33.725  25.895  53.180  0.00  0.00    -0.273 OA
BRANCH  41  44
ATOM     44  CA  GLN A   7      36.014  27.369  53.818  0.00  0.00    +0.137 C 
BRANCH  44  45
ATOM     45  C   GLN A   7      35.839  28.466  52.773  0.00  0.00    +0.227 C 
ATOM     46  O   GLN A   7      34.938  29.308  52.833  0.00  0.00    -0.286 OA
ENDBRANCH  44  45
BRANCH  44  47
ATOM     47  CB  GLN A   7      37.355  27.662  54.529  0.00  0.00    +0.037 C 
BRANCH  47  48
ATOM     48  CG  GLN A   7      37.328  27.852  56.002  0.00  0.00    +0.087 C 
BRANCH  48  49
ATOM     49  CD  GLN A   7      37.051  26.505  56.580  0.00  0.00    +0.219 C 
ATOM     50  NE2 GLN A   7      35.794  26.302  56.952  0.00  0.00    -0.329 N 
ATOM     51 HE21 GLN A   7      35.503  25.373  57.317  0.00  0.00    +0.145 HD
ATOM     52 HE22 GLN A   7      35.099  27.072  56.879  0.00  0.00    +0.145 HD
ATOM     53  OE1 GLN A   7      37.931  25.646  56.636  0.00  0.00    -0.275 OA
ENDBRANCH  48  49
ENDBRANCH  47  48
ENDBRANCH  44  47
ENDBRANCH  41  44
ENDBRANCH  39  40
BRANCH  39  54
ATOM     54  CB  LEU A   6      34.710  23.927  51.133  0.00  0.00    +0.029 C 
BRANCH  54  55
ATOM     55  CG  LEU A   6      34.742  22.625  50.357  0.00  0.00    +0.002 C 
ATOM     56  CD2 LEU A   6      36.175  22.228  50.099  0.00  0.00    +0.000 C 
ATOM     57  CD1 LEU A   6      33.969  22.794  49.046  0.00  0.00    +0.000 C 
ENDBRANCH  54  55
ENDBRANCH  39  54
ENDBRANCH  37  39
ENDBRANCH  34  35
BRANCH  34  58
ATOM     58  CB  PHE A   5      31.569  22.853  55.288  0.00  0.00    +0.055 C 
BRANCH  58  59
ATOM     59  CG  PHE A   5      30.730  22.988  53.994  0.00  0.00    -0.020 A 
ATOM     60  CD2 PHE A   5      30.299  24.248  53.580  0.00  0.00    -0.004 A 
ATOM     61  CE2 PHE A   5      29.478  24.369  52.463  0.00  0.00    -0.000 A 
ATOM     62  CZ  PHE A   5      29.090  23.246  51.756  0.00  0.00    -0.000 A 
ATOM     63  CE1 PHE A   5      29.518  22.002  52.147  0.00  0.00    -0.000 A 
ATOM     64  CD1 PHE A   5      30.334  21.872  53.254  0.00  0.00    -0.004 A 
ENDBRANCH  58  59
ENDBRANCH  34  58
ENDBRANCH   2  34
TORSDOF 25
REMARK  Name = ../refined-set-2016/1rbp/1rbp_pocket.pdb
REMARK  226 active torsions:
REMARK  status: ('A' for Active; 'I' for Inactive)
REMARK    1  A    between atoms: _1  and  _3
REMARK    2  A    between atoms: _3  and  _4
REMARK    3  A    between atoms: _3  and  _6
REMARK    4  A    between atoms: _6  and  _7
REMARK    5  A    between atoms: _13  and  _15
REMARK    6  A    between atoms: _15  and  _16
REMARK    7  A    between atoms: _15  and  _18
REMARK    8  A    between atoms: _18  and  _19
REMARK    9  A    between atoms: _29  and  _31
REMARK   10  A    between atoms: _31  and  _32
REMARK   11  A    between atoms: _36  and  _37
REMARK   12  A    between atoms: _42  and  _44
REMARK   13  A    between atoms: _44  and  _45
REMARK   14  A    between atoms: _44  and  _47
REMARK   15  A    between atoms: _47  and  _48
REMARK   16  A    between atoms: _48  and  _49
REMARK   17  A    between atoms: _52  and  _54
REMARK   18  A    between atoms: _54  and  _55
REMARK   19  A    between atoms: _57  and  _59
REMARK   20  A    between atoms: _59  and  _60
REMARK   21  A    between atoms: _59  and  _62
REMARK   22  A    between atoms: _62  and  _63
REMARK   23  A    between atoms: _66  and  _68
REMARK   24  A    between atoms: _68  and  _69
REMARK   25  A    between atoms: _68  and  _71
REMARK   26  A    between atoms: _71  and  _72
REMARK   27  A    between atoms: _78  and  _80
REMARK   28  A    between atoms: _80  and  _81
REMARK   29  A    between atoms: _80  and  _83
REMARK   30  A    between atoms: _83  and  _84
REMARK   31  A    between atoms: _87  and  _89
REMARK   32  A    between atoms: _89  and  _90
REMARK   33  A    between atoms: _89  and  _92
REMARK   34  A    between atoms: _92  and  _93
REMARK   35  A    between atoms: _93  and  _94
REMARK   36  A    between atoms: _99  and  _101
REMARK   37  A    between atoms: _101  and  _102
REMARK   38  A    between atoms: _101  and  _104
REMARK   39  A    between atoms: _104  and  _105
REMARK   40  A    between atoms: _108  and  _110
REMARK   41  A    between atoms: _110  and  _111
REMARK   42  A    between atoms: _110  and  _113
REMARK   43  A    between atoms: _116  and  _118
REMARK   44  A    between atoms: _118  and  _119
REMARK   45  A    between atoms: _122  and  _124
REMARK   46  A    between atoms: _124  and  _125
REMARK   47  A    between atoms: _124  and  _127
REMARK   48  A    between atoms: _127  and  _128
REMARK   49  A    between atoms: _128  and  _129
REMARK   50  A    between atoms: _132  and  _134
REMARK   51  A    between atoms: _134  and  _135
REMARK   52  A    between atoms: _134  and  _137
REMARK   53  A    between atoms: _137  and  _138
REMARK   54  A    between atoms: _144  and  _146
REMARK   55  A    between atoms: _146  and  _147
REMARK   56  A    between atoms: _146  and  _149
REMARK   57  A    between atoms: _149  and  _150
REMARK   58  A    between atoms: _152  and  _154
REMARK   59  A    between atoms: _154  and  _155
REMARK   60  A    between atoms: _154  and  _157
REMARK   61  A    between atoms: _157  and  _158
REMARK   62  A    between atoms: _160  and  _162
REMARK   63  A    between atoms: _162  and  _163
REMARK   64  A    between atoms: _166  and  _168
REMARK   65  A    between atoms: _168  and  _169
REMARK   66  A    between atoms: _168  and  _171
REMARK   67  A    between atoms: _171  and  _172
REMARK   68  A    between atoms: _175  and  _177
REMARK   69  A    between atoms: _177  and  _178
REMARK   70  A    between atoms: _181  and  _183
REMARK   71  A    between atoms: _183  and  _184
REMARK   72  A    between atoms: _183  and  _186
REMARK   73  A    between atoms: _186  and  _187
REMARK   74  A    between atoms: _187  and  _188
REMARK   75  A    between atoms: _188  and  _189
REMARK   76  A    between atoms: _189  and  _190
REMARK   77  A    between atoms: _194  and  _196
REMARK   78  A    between atoms: _196  and  _197
REMARK   79  A    between atoms: _199  and  _201
REMARK   80  A    between atoms: _201  and  _202
REMARK   81  A    between atoms: _201  and  _204
REMARK   82  A    between atoms: _204  and  _205
REMARK   83  A    between atoms: _205  and  _206
REMARK   84  A    between atoms: _206  and  _207
REMARK   85  A    between atoms: _216  and  _218
REMARK   86  A    between atoms: _218  and  _219
REMARK   87  A    between atoms: _218  and  _221
REMARK   88  A    between atoms: _224  and  _226
REMARK   89  A    between atoms: _226  and  _227
REMARK   90  A    between atoms: _226  and  _229
REMARK   91  A    between atoms: _229  and  _230
REMARK   92  A    between atoms: _230  and  _231
REMARK   93  A    between atoms: _231  and  _232
REMARK   94  A    between atoms: _241  and  _243
REMARK   95  A    between atoms: _243  and  _244
REMARK   96  A    between atoms: _243  and  _246
REMARK   97  A    between atoms: _246  and  _247
REMARK   98  A    between atoms: _250  and  _252
REMARK   99  A    between atoms: _252  and  _253
REMARK  100  A    between atoms: _252  and  _255
REMARK  101  A    between atoms: _255  and  _256
REMARK  102  A    between atoms: _259  and  _261
REMARK  103  A    between atoms: _261  and  _262
REMARK  104  A    between atoms: _261  and  _264
REMARK  105  A    between atoms: _267  and  _269
REMARK  106  A    between atoms: _269  and  _270
REMARK  107  A    between atoms: _273  and  _275
REMARK  108  A    between atoms: _275  and  _276
REMARK  109  A    between atoms: _275  and  _278
REMARK  110  A    between atoms: _278  and  _279
REMARK  111  A    between atoms: _282  and  _284
REMARK  112  A    between atoms: _284  and  _285
REMARK  113  A    between atoms: _284  and  _287
REMARK  114  A    between atoms: _287  and  _288
REMARK  115  A    between atoms: _288  and  _289
REMARK  116  A    between atoms: _291  and  _293
REMARK  117  A    between atoms: _293  and  _294
REMARK  118  A    between atoms: _293  and  _296
REMARK  119  A    between atoms: _299  and  _301
REMARK  120  A    between atoms: _301  and  _302
REMARK  121  A    between atoms: _304  and  _306
REMARK  122  A    between atoms: _306  and  _307
REMARK  123  A    between atoms: _306  and  _309
REMARK  124  A    between atoms: _309  and  _310
REMARK  125  A    between atoms: _313  and  _315
REMARK  126  A    between atoms: _315  and  _316
REMARK  127  A    between atoms: _315  and  _318
REMARK  128  A    between atoms: _318  and  _319
REMARK  129  A    between atoms: _325  and  _327
REMARK  130  A    between atoms: _327  and  _328
REMARK  131  A    between atoms: _327  and  _330
REMARK  132  A    between atoms: _330  and  _331
REMARK  133  A    between atoms: _331  and  _332
REMARK  134  A    between atoms: _334  and  _336
REMARK  135  A    between atoms: _336  and  _337
REMARK  136  A    between atoms: _336  and  _339
REMARK  137  A    between atoms: _339  and  _340
REMARK  138  A    between atoms: _340  and  _341
REMARK  139  A    between atoms: _341  and  _342
REMARK  140  A    between atoms: _342  and  _343
REMARK  141  A    between atoms: _347  and  _349
REMARK  142  A    between atoms: _349  and  _350
REMARK  143  A    between atoms: _349  and  _352
REMARK  144  A    between atoms: _352  and  _353
REMARK  145  A    between atoms: _358  and  _359
REMARK  146  A    between atoms: _361  and  _363
REMARK  147  A    between atoms: _363  and  _364
REMARK  148  A    between atoms: _363  and  _366
REMARK  149  A    between atoms: _366  and  _367
REMARK  150  A    between atoms: _377  and  _379
REMARK  151  A    between atoms: _379  and  _380
REMARK  152  A    between atoms: _382  and  _384
REMARK  153  A    between atoms: _384  and  _385
REMARK  154  A    between atoms: _384  and  _387
REMARK  155  A    between atoms: _387  and  _388
REMARK  156  A    between atoms: _394  and  _396
REMARK  157  A    between atoms: _396  and  _397
REMARK  158  A    between atoms: _396  and  _399
REMARK  159  A    between atoms: _399  and  _400
REMARK  160  A    between atoms: _403  and  _405
REMARK  161  A    between atoms: _405  and  _406
REMARK  162  A    between atoms: _405  and  _408
REMARK  163  A    between atoms: _408  and  _409
REMARK  164  A    between atoms: _409  and  _410
REMARK  165  A    between atoms: _415  and  _417
REMARK  166  A    between atoms: _417  and  _418
REMARK  167  A    between atoms: _417  and  _420
REMARK  168  A    between atoms: _420  and  _421
REMARK  169  A    between atoms: _421  and  _422
REMARK  170  A    between atoms: _422  and  _423
REMARK  171  A    between atoms: _423  and  _424
REMARK  172  A    between atoms: _428  and  _430
REMARK  173  A    between atoms: _430  and  _431
REMARK  174  A    between atoms: _433  and  _435
REMARK  175  A    between atoms: _435  and  _436
REMARK  176  A    between atoms: _435  and  _438
REMARK  177  A    between atoms: _438  and  _439
REMARK  178  A    between atoms: _442  and  _444
REMARK  179  A    between atoms: _444  and  _445
REMARK  180  A    between atoms: _444  and  _447
REMARK  181  A    between atoms: _447  and  _448
REMARK  182  A    between atoms: _451  and  _453
REMARK  183  A    between atoms: _453  and  _454
REMARK  184  A    between atoms: _453  and  _456
REMARK  185  A    between atoms: _456  and  _457
REMARK  186  A    between atoms: _462  and  _464
REMARK  187  A    between atoms: _464  and  _465
REMARK  188  A    between atoms: _464  and  _467
REMARK  189  A    between atoms: _467  and  _468
REMARK  190  A    between atoms: _478  and  _480
REMARK  191  A    between atoms: _480  and  _481
REMARK  192  A    between atoms: _480  and  _483
REMARK  193  A    between atoms: _483  and  _484
REMARK  194  A    between atoms: _484  and  _485
REMARK  195  A    between atoms: _490  and  _492
REMARK  196  A    between atoms: _492  and  _493
REMARK  197  A    between atoms: _492  and  _495
REMARK  198  A    between atoms: _495  and  _496
REMARK  199  A    between atoms: _501  and  _502
REMARK  200  A    between atoms: _504  and  _506
REMARK  201  A    between atoms: _506  and  _507
REMARK  202  A    between atoms: _506  and  _509
REMARK  203  A    between atoms: _509  and  _510
REMARK  204  A    between atoms: _512  and  _514
REMARK  205  A    between atoms: _514  and  _515
REMARK  206  A    between atoms: _514  and  _517
REMARK  207  A    between atoms: _517  and  _518
REMARK  208  A    between atoms: _518  and  _519
REMARK  209  A    between atoms: _519  and  _520
REMARK  210  A    between atoms: _529  and  _531
REMARK  211  A    between atoms: _531  and  _532
REMARK  212  A    between atoms: _531  and  _534
REMARK  213  A    between atoms: _534  and  _535
REMARK  214  A    between atoms: _540  and  _541
REMARK  215  A    between atoms: _543  and  _545
REMARK  216  A    between atoms: _545  and  _546
REMARK  217  A    between atoms: _545  and  _548
REMARK  218  A    between atoms: _548  and  _549
REMARK  219  A    between atoms: _551  and  _553
REMARK  220  A    between atoms: _553  and  _554
REMARK  221  A    between atoms: _553  and  _556
REMARK  222  A    between atoms: _556  and  _557
REMARK  223  A    between atoms: _563  and  _565
REMARK  224  A    between atoms: _565  and  _566
REMARK  225  A    between atoms: _565  and  _568
REMARK  226  A    between atoms: _568  and  _569
REMARK                            x       y       z     vdW  Elec       q    Type
REMARK                         _______ _______ _______ _____ _____    ______ ____
ROOT
ATOM      1  CA  GLU A   4      33.392  22.980  37.290  0.00  0.00    +0.149 C 
ENDROOT
BRANCH   1   2
ATOM      2  C   GLU A   4      32.361  21.914  36.992  0.00  0.00    +0.241 C 
ATOM      3  O   GLU A   4      32.560  20.739  37.296  0.00  0.00    -0.273 OA
ATOM      4  N   PHE A   5      31.241  22.365  36.446  0.00  0.00    -0.297 N 
ATOM      5  H   PHE A   5      31.144  23.388  36.285  0.00  0.00    +0.150 HD
BRANCH   4   6
ATOM      6  CA  PHE A   5      30.152  21.504  36.066  0.00  0.00    +0.153 C 
BRANCH   6   7
ATOM      7  C   PHE A   5      30.336  20.985  34.655  0.00  0.00    +0.241 C 
ATOM      8  N   SER A   6      29.927  19.734  34.472  0.00  0.00    -0.296 N 
ATOM      9  H   SER A   6      29.405  19.262  35.237  0.00  0.00    +0.150 HD
ATOM     10  O   PHE A   5      30.842  21.672  33.772  0.00  0.00    -0.273 OA
BRANCH   8  11
ATOM     11  CA  SER A   6      30.182  18.999  33.241  0.00  0.00    +0.166 C 
BRANCH  11  12
ATOM     12  C   SER A   6      29.085  17.982  32.928  0.00  0.00    +0.229 C 
ATOM     13  O   SER A   6      28.529  17.373  33.838  0.00  0.00    -0.286 OA
ENDBRANCH  11  12
BRANCH  11  14
ATOM     14  CB  SER A   6      31.546  18.356  33.473  0.00  0.00    +0.165 C 
BRANCH  14  15
ATOM     15  OG  SER A   6      32.066  17.827  32.301  0.00  0.00    -0.380 OA
ATOM     16  H   SER A   6      32.949  17.419  32.488  0.00  0.00    +0.211 HD
ENDBRANCH  14  15
ENDBRANCH  11  14
ENDBRANCH   8  11
ENDBRANCH   6   7
BRANCH   6  17
ATOM     17  CB  PHE A   5      28.865  22.321  36.248  0.00  0.00    +0.055 C 
BRANCH  17  18
ATOM     18  CG  PHE A   5      28.399  22.176  37.693  0.00  0.00    -0.020 A 
ATOM     19  CD2 PHE A   5      28.795  23.083  38.656  0.00  0.00    -0.004 A 
ATOM     20  CE2 PHE A   5      28.380  22.898  39.967  0.00  0.00    -0.000 A 
ATOM     21  CZ  PHE A   5      27.583  21.820  40.294  0.00  0.00    -0.000 A 
ATOM     22  CE1 PHE A   5      27.196  20.927  39.318  0.00  0.00    -0.000 A 
ATOM     23  CD1 PHE A   5      27.598  21.099  38.020  0.00  0.00    -0.004 A 
ENDBRANCH  17  18
ENDBRANCH   6  17
ENDBRANCH   4   6
ENDBRANCH   1   2
BRANCH   1  25
ATOM     24  C   ALA A   3      33.202  24.340  39.336  0.00  0.00    +0.241 C 
ATOM     25  N   GLU A   4      33.328  23.171  38.723  0.00  0.00    -0.297 N 
ATOM     26  H   GLU A   4      33.386  22.322  39.321  0.00  0.00    +0.150 HD
ATOM     27  O   ALA A   3      33.124  25.395  38.708  0.00  0.00    -0.273 OA
BRANCH  24  28
ATOM     28  CA  ALA A   3      33.195  24.292  40.882  0.00  0.00    +0.149 C 
ATOM     29  CB  ALA A   3      31.772  24.067  41.402  0.00  0.00    +0.031 C 
BRANCH  28  32
ATOM     30  C   VAL A   2      34.908  25.665  41.938  0.00  0.00    +0.241 C 
ATOM     31  O   VAL A   2      35.664  24.694  42.051  0.00  0.00    -0.273 OA
ATOM     32  N   ALA A   3      33.695  25.544  41.412  0.00  0.00    -0.297 N 
ATOM     33  H   ALA A   3      33.079  26.381  41.379  0.00  0.00    +0.150 HD
BRANCH  30  34
ATOM     34  CA  VAL A   2      35.300  27.079  42.405  0.00  0.00    +0.148 C 
BRANCH  34  37
ATOM     35  C   ILE A   1      35.196  27.936  44.727  0.00  0.00    +0.238 C 
ATOM     36  O   ILE A   1      34.554  28.948  44.458  0.00  0.00    -0.274 OA
ATOM     37  N   VAL A   2      35.574  27.009  43.844  0.00  0.00    -0.297 N 
ATOM     38  H   VAL A   2      36.097  26.183  44.200  0.00  0.00    +0.150 HD
BRANCH  35  39
ATOM     39  CA  ILE A   1      35.621  27.614  46.137  0.00  0.00    +0.145 C 
BRANCH  39  40
ATOM     40  N   ILE A   1      36.471  28.626  46.737  0.00  0.00    -0.238 NA
ATOM     41  H   ILE A   1      36.024  29.421  47.237  0.00  0.00    +0.142 HD
ENDBRANCH  39  40
BRANCH  39  42
ATOM     42  CB  ILE A   1      34.350  27.387  46.985  0.00  0.00    +0.025 C 
ATOM     43  CG2 ILE A   1      33.583  26.201  46.365  0.00  0.00    +0.002 C 
BRANCH  42  44
ATOM     44  CG1 ILE A   1      34.712  27.147  48.461  0.00  0.00    +0.002 C 
ATOM     45  CD1 ILE A   1      33.576  27.029  49.497  0.00  0.00    +0.000 C 
ENDBRANCH  42  44
ENDBRANCH  39  42
ENDBRANCH  35  39
ENDBRANCH  34  37
BRANCH  34  46
ATOM     46  CB  VAL A   2      36.550  27.527  41.560  0.00  0.00    +0.027 C 
ATOM     47  CG2 VAL A   2      37.098  28.830  42.091  0.00  0.00    +0.002 C 
ATOM     48  CG1 VAL A   2      36.173  27.655  40.074  0.00  0.00    +0.002 C 
ENDBRANCH  34  46
ENDBRANCH  30  34
ENDBRANCH  28  32
ENDBRANCH  24  28
ENDBRANCH   1  25
BRANCH   1  49
ATOM     49  CB  GLU A   4      34.751  22.459  36.848  0.00  0.00    +0.041 C 
BRANCH  49  50
ATOM     50  CG  GLU A   4      34.926  22.383  35.325  0.00  0.00    +0.116 C 
BRANCH  50  51
ATOM     51  CD  GLU A   4      35.063  23.737  34.643  0.00  0.00    +0.365 C 
ATOM     52  OE2 GLU A   4      35.665  24.657  35.214  0.00  0.00    -0.246 OA
ATOM     53  OE1 GLU A   4      34.560  23.861  33.527  0.00  0.00    -0.246 OA
ENDBRANCH  50  51
ENDBRANCH  49  50
ENDBRANCH   1  49
TORSDOF 22
REMARK  Name = ../refined-set-2016/1rbp/1rbp_pocket.pdb
REMARK  226 active torsions:
REMARK  status: ('A' for Active; 'I' for Inactive)
REMARK    1  A    between atoms: _1  and  _3
REMARK    2  A    between atoms: _3  and  _4
REMARK    3  A    between atoms: _3  and  _6
REMARK    4  A    between atoms: _6  and  _7
REMARK    5  A    between atoms: _13  and  _15
REMARK    6  A    between atoms: _15  and  _16
REMARK    7  A    between atoms: _15  and  _18
REMARK    8  A    between atoms: _18  and  _19
REMARK    9  A    between atoms: _29  and  _31
REMARK   10  A    between atoms: _31  and  _32
REMARK   11  A    between atoms: _36  and  _37
REMARK   12  A    between atoms: _42  and  _44
REMARK   13  A    between atoms: _44  and  _45
REMARK   14  A    between atoms: _44  and  _47
REMARK   15  A    between atoms: _47  and  _48
REMARK   16  A    between atoms: _48  and  _49
REMARK   17  A    between atoms: _52  and  _54
REMARK   18  A    between atoms: _54  and  _55
REMARK   19  A    between atoms: _57  and  _59
REMARK   20  A    between atoms: _59  and  _60
REMARK   21  A    between atoms: _59  and  _62
REMARK   22  A    between atoms: _62  and  _63
REMARK   23  A    between atoms: _66  and  _68
REMARK   24  A    between atoms: _68  and  _69
REMARK   25  A    between atoms: _68  and  _71
REMARK   26  A    between atoms: _71  and  _72
REMARK   27  A    between atoms: _78  and  _80
REMARK   28  A    between atoms: _80  and  _81
REMARK   29  A    between atoms: _80  and  _83
REMARK   30  A    between atoms: _83  and  _84
REMARK   31  A    between atoms: _87  and  _89
REMARK   32  A    between atoms: _89  and  _90
REMARK   33  A    between atoms: _89  and  _92
REMARK   34  A    between atoms: _92  and  _93
REMARK   35  A    between atoms: _93  and  _94
REMARK   36  A    between atoms: _99  and  _101
REMARK   37  A    between atoms: _101  and  _102
REMARK   38  A    between atoms: _101  and  _104
REMARK   39  A    between atoms: _104  and  _105
REMARK   40  A    between atoms: _108  and  _110
REMARK   41  A    between atoms: _110  and  _111
REMARK   42  A    between atoms: _110  and  _113
REMARK   43  A    between atoms: _116  and  _118
REMARK   44  A    between atoms: _118  and  _119
REMARK   45  A    between atoms: _122  and  _124
REMARK   46  A    between atoms: _124  and  _125
REMARK   47  A    between atoms: _124  and  _127
REMARK   48  A    between atoms: _127  and  _128
REMARK   49  A    between atoms: _128  and  _129
REMARK   50  A    between atoms: _132  and  _134
REMARK   51  A    between atoms: _134  and  _135
REMARK   52  A    between atoms: _134  and  _137
REMARK   53  A    between atoms: _137  and  _138
REMARK   54  A    between atoms: _144  and  _146
REMARK   55  A    between atoms: _146  and  _147
REMARK   56  A    between atoms: _146  and  _149
REMARK   57  A    between atoms: _149  and  _150
REMARK   58  A    between atoms: _152  and  _154
REMARK   59  A    between atoms: _154  and  _155
REMARK   60  A    between atoms: _154  and  _157
REMARK   61  A    between atoms: _157  and  _158
REMARK   62  A    between atoms: _160  and  _162
REMARK   63  A    between atoms: _162  and  _163
REMARK   64  A    between atoms: _166  and  _168
REMARK   65  A    between atoms: _168  and  _169
REMARK   66  A    between atoms: _168  and  _171
REMARK   67  A    between atoms: _171  and  _172
REMARK   68  A    between atoms: _175  and  _177
REMARK   69  A    between atoms: _177  and  _178
REMARK   70  A    between atoms: _181  and  _183
REMARK   71  A    between atoms: _183  and  _184
REMARK   72  A    between atoms: _183  and  _186
REMARK   73  A    between atoms: _186  and  _187
REMARK   74  A    between atoms: _187  and  _188
REMARK   75  A    between atoms: _188  and  _189
REMARK   76  A    between atoms: _189  and  _190
REMARK   77  A    between atoms: _194  and  _196
REMARK   78  A    between atoms: _196  and  _197
REMARK   79  A    between atoms: _199  and  _201
REMARK   80  A    between atoms: _201  and  _202
REMARK   81  A    between atoms: _201  and  _204
REMARK   82  A    between atoms: _204  and  _205
REMARK   83  A    between atoms: _205  and  _206
REMARK   84  A    between atoms: _206  and  _207
REMARK   85  A    between atoms: _216  and  _218
REMARK   86  A    between atoms: _218  and  _219
REMARK   87  A    between atoms: _218  and  _221
REMARK   88  A    between atoms: _224  and  _226
REMARK   89  A    between atoms: _226  and  _227
REMARK   90  A    between atoms: _226  and  _229
REMARK   91  A    between atoms: _229  and  _230
REMARK   92  A    between atoms: _230  and  _231
REMARK   93  A    between atoms: _231  and  _232
REMARK   94  A    between atoms: _241  and  _243
REMARK   95  A    between atoms: _243  and  _244
REMARK   96  A    between atoms: _243  and  _246
REMARK   97  A    between atoms: _246  and  _247
REMARK   98  A    between atoms: _250  and  _252
REMARK   99  A    between atoms: _252  and  _253
REMARK  100  A    between atoms: _252  and  _255
REMARK  101  A    between atoms: _255  and  _256
REMARK  102  A    between atoms: _259  and  _261
REMARK  103  A    between atoms: _261  and  _262
REMARK  104  A    between atoms: _261  and  _264
REMARK  105  A    between atoms: _267  and  _269
REMARK  106  A    between atoms: _269  and  _270
REMARK  107  A    between atoms: _273  and  _275
REMARK  108  A    between atoms: _275  and  _276
REMARK  109  A    between atoms: _275  and  _278
REMARK  110  A    between atoms: _278  and  _279
REMARK  111  A    between atoms: _282  and  _284
REMARK  112  A    between atoms: _284  and  _285
REMARK  113  A    between atoms: _284  and  _287
REMARK  114  A    between atoms: _287  and  _288
REMARK  115  A    between atoms: _288  and  _289
REMARK  116  A    between atoms: _291  and  _293
REMARK  117  A    between atoms: _293  and  _294
REMARK  118  A    between atoms: _293  and  _296
REMARK  119  A    between atoms: _299  and  _301
REMARK  120  A    between atoms: _301  and  _302
REMARK  121  A    between atoms: _304  and  _306
REMARK  122  A    between atoms: _306  and  _307
REMARK  123  A    between atoms: _306  and  _309
REMARK  124  A    between atoms: _309  and  _310
REMARK  125  A    between atoms: _313  and  _315
REMARK  126  A    between atoms: _315  and  _316
REMARK  127  A    between atoms: _315  and  _318
REMARK  128  A    between atoms: _318  and  _319
REMARK  129  A    between atoms: _325  and  _327
REMARK  130  A    between atoms: _327  and  _328
REMARK  131  A    between atoms: _327  and  _330
REMARK  132  A    between atoms: _330  and  _331
REMARK  133  A    between atoms: _331  and  _332
REMARK  134  A    between atoms: _334  and  _336
REMARK  135  A    between atoms: _336  and  _337
REMARK  136  A    between atoms: _336  and  _339
REMARK  137  A    between atoms: _339  and  _340
REMARK  138  A    between atoms: _340  and  _341
REMARK  139  A    between atoms: _341  and  _342
REMARK  140  A    between atoms: _342  and  _343
REMARK  141  A    between atoms: _347  and  _349
REMARK  142  A    between atoms: _349  and  _350
REMARK  143  A    between atoms: _349  and  _352
REMARK  144  A    between atoms: _352  and  _353
REMARK  145  A    between atoms: _358  and  _359
REMARK  146  A    between atoms: _361  and  _363
REMARK  147  A    between atoms: _363  and  _364
REMARK  148  A    between atoms: _363  and  _366
REMARK  149  A    between atoms: _366  and  _367
REMARK  150  A    between atoms: _377  and  _379
REMARK  151  A    between atoms: _379  and  _380
REMARK  152  A    between atoms: _382  and  _384
REMARK  153  A    between atoms: _384  and  _385
REMARK  154  A    between atoms: _384  and  _387
REMARK  155  A    between atoms: _387  and  _388
REMARK  156  A    between atoms: _394  and  _396
REMARK  157  A    between atoms: _396  and  _397
REMARK  158  A    between atoms: _396  and  _399
REMARK  159  A    between atoms: _399  and  _400
REMARK  160  A    between atoms: _403  and  _405
REMARK  161  A    between atoms: _405  and  _406
REMARK  162  A    between atoms: _405  and  _408
REMARK  163  A    between atoms: _408  and  _409
REMARK  164  A    between atoms: _409  and  _410
REMARK  165  A    between atoms: _415  and  _417
REMARK  166  A    between atoms: _417  and  _418
REMARK  167  A    between atoms: _417  and  _420
REMARK  168  A    between atoms: _420  and  _421
REMARK  169  A    between atoms: _421  and  _422
REMARK  170  A    between atoms: _422  and  _423
REMARK  171  A    between atoms: _423  and  _424
REMARK  172  A    between atoms: _428  and  _430
REMARK  173  A    between atoms: _430  and  _431
REMARK  174  A    between atoms: _433  and  _435
REMARK  175  A    between atoms: _435  and  _436
REMARK  176  A    between atoms: _435  and  _438
REMARK  177  A    between atoms: _438  and  _439
REMARK  178  A    between atoms: _442  and  _444
REMARK  179  A    between atoms: _444  and  _445
REMARK  180  A    between atoms: _444  and  _447
REMARK  181  A    between atoms: _447  and  _448
REMARK  182  A    between atoms: _451  and  _453
REMARK  183  A    between atoms: _453  and  _454
REMARK  184  A    between atoms: _453  and  _456
REMARK  185  A    between atoms: _456  and  _457
REMARK  186  A    between atoms: _462  and  _464
REMARK  187  A    between atoms: _464  and  _465
REMARK  188  A    between atoms: _464  and  _467
REMARK  189  A    between atoms: _467  and  _468
REMARK  190  A    between atoms: _478  and  _480
REMARK  191  A    between atoms: _480  and  _481
REMARK  192  A    between atoms: _480  and  _483
REMARK  193  A    between atoms: _483  and  _484
REMARK  194  A    between atoms: _484  and  _485
REMARK  195  A    between atoms: _490  and  _492
REMARK  196  A    between atoms: _492  and  _493
REMARK  197  A    between atoms: _492  and  _495
REMARK  198  A    between atoms: _495  and  _496
REMARK  199  A    between atoms: _501  and  _502
REMARK  200  A    between atoms: _504  and  _506
REMARK  201  A    between atoms: _506  and  _507
REMARK  202  A    between atoms: _506  and  _509
REMARK  203  A    between atoms: _509  and  _510
REMARK  204  A    between atoms: _512  and  _514
REMARK  205  A    between atoms: _514  and  _515
REMARK  206  A    between atoms: _514  and  _517
REMARK  207  A    between atoms: _517  and  _518
REMARK  208  A    between atoms: _518  and  _519
REMARK  209  A    between atoms: _519  and  _520
REMARK  210  A    between atoms: _529  and  _531
REMARK  211  A    between atoms: _531  and  _532
REMARK  212  A    between atoms: _531  and  _534
REMARK  213  A    between atoms: _534  and  _535
REMARK  214  A    between atoms: _540  and  _541
REMARK  215  A    between atoms: _543  and  _545
REMARK  216  A    between atoms: _545  and  _546
REMARK  217  A    between atoms: _545  and  _548
REMARK  218  A    between atoms: _548  and  _549
REMARK  219  A    between atoms: _551  and  _553
REMARK  220  A    between atoms: _553  and  _554
REMARK  221  A    between atoms: _553  and  _556
REMARK  222  A    between atoms: _556  and  _557
REMARK  223  A    between atoms: _563  and  _565
REMARK  224  A    between atoms: _565  and  _566
REMARK  225  A    between atoms: _565  and  _568
REMARK  226  A    between atoms: _568  and  _569
REMARK                            x       y       z     vdW  Elec       q    Type
REMARK                         _______ _______ _______ _____ _____    ______ ____
ROOT
ATOM      1  CA  ARG A   7      40.353  25.245  51.091  0.00  0.00    +0.149 C 
ENDROOT
BRANCH   1   2
ATOM      2  C   ARG A   7      39.524  24.773  52.263  0.00  0.00    +0.241 C 
ATOM      3  N   VAL A   8      39.948  23.717  52.960  0.00  0.00    -0.297 N 
ATOM      4  H   VAL A   8      40.800  23.220  52.631  0.00  0.00    +0.150 HD
ATOM      5  O   ARG A   7      38.489  25.374  52.532  0.00  0.00    -0.273 OA
BRANCH   3   6
ATOM      6  CA  VAL A   8      39.272  23.217  54.172  0.00  0.00    +0.149 C 
BRANCH   6   7
ATOM      7  C   VAL A   8      40.233  23.195  55.372  0.00  0.00    +0.241 C 
ATOM      8  N   ARG A   9      39.818  23.511  56.602  0.00  0.00    -0.297 N 
ATOM      9  H   ARG A   9      38.850  23.860  56.754  0.00  0.00    +0.150 HD
ATOM     10  O   VAL A   8      41.408  22.859  55.205  0.00  0.00    -0.273 OA
BRANCH   8  11
ATOM     11  CA  ARG A   9      40.732  23.363  57.731  0.00  0.00    +0.149 C 
BRANCH  11  12
ATOM     12  C   ARG A   9      40.413  22.093  58.522  0.00  0.00    +0.241 C 
ATOM     13  O   ARG A   9      39.403  22.002  59.226  0.00  0.00    -0.273 OA
ATOM     14  N   LEU A  10      41.294  21.097  58.325  0.00  0.00    -0.297 N 
ATOM     15  H   LEU A  10      42.062  21.269  57.645  0.00  0.00    +0.150 HD
BRANCH  14  16
ATOM     16  CA  LEU A  10      41.266  19.793  58.984  0.00  0.00    +0.149 C 
BRANCH  16  17
ATOM     17  C   LEU A  10      41.649  19.903  60.468  0.00  0.00    +0.241 C 
ATOM     18  N   LEU A  11      41.222  18.999  61.378  0.00  0.00    -0.298 N 
ATOM     19  H   LEU A  11      40.697  18.171  61.030  0.00  0.00    +0.150 HD
ATOM     20  O   LEU A  10      42.397  20.821  60.799  0.00  0.00    -0.273 OA
BRANCH  18  21
ATOM     21  CA  LEU A  11      41.453  19.109  62.842  0.00  0.00    +0.137 C 
BRANCH  21  22
ATOM     22  C   LEU A  11      42.856  19.387  63.368  0.00  0.00    +0.227 C 
ATOM     23  O   LEU A  11      43.079  20.152  64.312  0.00  0.00    -0.286 OA
ENDBRANCH  21  22
BRANCH  21  24
ATOM     24  CB  LEU A  11      40.995  17.846  63.585  0.00  0.00    +0.028 C 
BRANCH  24  25
ATOM     25  CG  LEU A  11      39.557  17.663  64.055  0.00  0.00    +0.002 C 
ATOM     26  CD2 LEU A  11      39.268  18.668  65.162  0.00  0.00    +0.000 C 
ATOM     27  CD1 LEU A  11      38.605  17.786  62.863  0.00  0.00    +0.000 C 
ENDBRANCH  24  25
ENDBRANCH  21  24
ENDBRANCH  18  21
ENDBRANCH  16  17
BRANCH  16  28
ATOM     28  CB  LEU A  10      42.240  18.858  58.251  0.00  0.00    +0.029 C 
BRANCH  28  29
ATOM     29  CG  LEU A  10      41.803  17.660  57.404  0.00  0.00    +0.002 C 
ATOM     30  CD2 LEU A  10      41.010  16.678  58.281  0.00  0.00    +0.000 C 
ATOM     31  CD1 LEU A  10      40.995  18.141  56.227  0.00  0.00    +0.000 C 
ENDBRANCH  28  29
ENDBRANCH  16  28
ENDBRANCH  14  16
ENDBRANCH  11  12
BRANCH  11  32
ATOM     32  CB  ARG A   9      40.663  24.569  58.674  0.00  0.00    +0.033 C 
BRANCH  32  33
ATOM     33  CG  ARG A   9      42.091  24.814  59.180  0.00  0.00    +0.045 C 
BRANCH  33  34
ATOM     34  CD  ARG A   9      42.289  26.089  59.994  0.00  0.00    +0.174 C 
BRANCH  34  35
ATOM     35  NE  ARG A   9      43.683  26.511  59.955  0.00  0.00    -0.265 N 
ATOM     36  HE  ARG A   9      44.424  25.835  60.230  0.00  0.00    +0.259 HD
ATOM     37  CZ  ARG A   9      44.038  27.751  59.573  0.00  0.00    +0.342 C 
ATOM     38  NH2 ARG A   9      45.327  28.068  59.519  0.00  0.00    -0.292 N 
ATOM     39 HH21 ARG A   9      46.047  27.361  59.770  0.00  0.00    +0.255 HD
ATOM     40 HH22 ARG A   9      45.616  29.023  59.225  0.00  0.00    +0.255 HD
ATOM     41  NH1 ARG A   9      43.153  28.695  59.229  0.00  0.00    -0.292 N 
ATOM     42 HH11 ARG A   9      42.135  28.485  59.249  0.00  0.00    +0.255 HD
ATOM     43 HH12 ARG A   9      43.484  29.638  58.941  0.00  0.00    +0.255 HD
ENDBRANCH  34  35
ENDBRANCH  33  34
ENDBRANCH  32  33
ENDBRANCH  11  32
ENDBRANCH   8  11
ENDBRANCH   6   7
BRANCH   6  44
ATOM     44  CB  VAL A   8      38.755  21.762  54.035  0.00  0.00    +0.027 C 
ATOM     45  CG2 VAL A   8      37.718  21.567  55.131  0.00  0.00    +0.002 C 
ATOM     46  CG1 VAL A   8      38.206  21.452  52.659  0.00  0.00    +0.002 C 
ENDBRANCH   6  44
ENDBRANCH   3   6
ENDBRANCH   1   2
BRANCH   1  48
ATOM     47  C   GLY A   6      39.320  24.489  49.017  0.00  0.00    +0.243 C 
ATOM     48  N   ARG A   7      39.479  25.424  49.939  0.00  0.00    -0.297 N 
ATOM     49  H   ARG A   7      38.961  26.320  49.838  0.00  0.00    +0.150 HD
ATOM     50  O   GLY A   6      39.906  23.421  49.073  0.00  0.00    -0.273 OA
BRANCH  47  51
ATOM     51  CA  GLY A   6      38.390  24.748  47.872  0.00  0.00    +0.176 C 
BRANCH  51  53
ATOM     52  C   LYS A   5      37.913  23.914  45.656  0.00  0.00    +0.241 C 
ATOM     53  N   GLY A   6      38.614  23.801  46.784  0.00  0.00    -0.295 N 
ATOM     54  H   GLY A   6      39.317  23.042  46.888  0.00  0.00    +0.150 HD
ATOM     55  O   LYS A   5      36.996  24.736  45.584  0.00  0.00    -0.273 OA
BRANCH  52  56
ATOM     56  CA  LYS A   5      38.197  23.017  44.458  0.00  0.00    +0.149 C 
BRANCH  56  59
ATOM     57  C   ALA A   4      36.425  21.513  43.832  0.00  0.00    +0.241 C 
ATOM     58  O   ALA A   4      37.084  20.529  44.136  0.00  0.00    -0.273 OA
ATOM     59  N   LYS A   5      36.911  22.730  43.897  0.00  0.00    -0.297 N 
ATOM     60  H   LYS A   5      36.340  23.517  43.527  0.00  0.00    +0.150 HD
BRANCH  57  61
ATOM     61  CA  ALA A   4      35.022  21.409  43.278  0.00  0.00    +0.149 C 
ATOM     62  CB  ALA A   4      34.054  21.344  44.450  0.00  0.00    +0.031 C 
BRANCH  61  64
ATOM     63  C   THR A   3      34.618  20.247  41.201  0.00  0.00    +0.243 C 
ATOM     64  N   ALA A   4      34.984  20.199  42.478  0.00  0.00    -0.297 N 
ATOM     65  H   ALA A   4      35.245  19.288  42.907  0.00  0.00    +0.150 HD
ATOM     66  O   THR A   3      34.135  21.250  40.680  0.00  0.00    -0.273 OA
BRANCH  63  67
ATOM     67  CA  THR A   3      34.729  18.984  40.385  0.00  0.00    +0.176 C 
BRANCH  67  70
ATOM     68  C   ALA A   2      32.679  18.044  39.532  0.00  0.00    +0.241 C 
ATOM     69  O   ALA A   2      32.925  16.941  40.040  0.00  0.00    -0.273 OA
ATOM     70  N   THR A   3      33.562  19.030  39.527  0.00  0.00    -0.295 N 
ATOM     71  H   THR A   3      33.417  19.847  38.900  0.00  0.00    +0.150 HD
BRANCH  68  72
ATOM     72  CA  ALA A   2      31.397  18.326  38.782  0.00  0.00    +0.149 C 
ATOM     73  CB  ALA A   2      30.464  19.072  39.714  0.00  0.00    +0.031 C 
BRANCH  72  75
ATOM     74  C   SER A   1      29.926  16.924  37.476  0.00  0.00    +0.241 C 
ATOM     75  N   ALA A   2      30.849  17.052  38.400  0.00  0.00    -0.297 N 
ATOM     76  H   ALA A   2      31.199  16.196  38.876  0.00  0.00    +0.150 HD
ATOM     77  O   SER A   1      29.455  17.911  36.920  0.00  0.00    -0.274 OA
BRANCH  74  78
ATOM     78  CA  SER A   1      29.479  15.510  37.140  0.00  0.00    +0.174 C 
BRANCH  78  79
ATOM     79  N   SER A   1      28.499  15.626  36.082  0.00  0.00    -0.236 NA
ATOM     80  H   SER A   1      28.749  16.178  35.237  0.00  0.00    +0.142 HD
ENDBRANCH  78  79
BRANCH  78  81
ATOM     81  CB  SER A   1      30.679  14.689  36.695  0.00  0.00    +0.163 C 
BRANCH  81  82
ATOM     82  OG  SER A   1      31.232  15.151  35.475  0.00  0.00    -0.380 OA
ATOM     83  H   SER A   1      30.546  15.099  34.763  0.00  0.00    +0.211 HD
ENDBRANCH  81  82
ENDBRANCH  78  81
ENDBRANCH  74  78
ENDBRANCH  72  75
ENDBRANCH  68  72
ENDBRANCH  67  70
BRANCH  67  84
ATOM     84  CB  THR A   3      36.073  19.025  39.619  0.00  0.00    +0.137 C 
ATOM     85  CG2 THR A   3      36.342  17.770  38.802  0.00  0.00    +0.034 C 
BRANCH  84  86
ATOM     86  OG1 THR A   3      36.030  20.208  38.849  0.00  0.00    -0.382 OA
ATOM     87  HG1 THR A   3      35.931  20.988  39.450  0.00  0.00    +0.210 HD
ENDBRANCH  84  86
ENDBRANCH  67  84
ENDBRANCH  63  67
ENDBRANCH  61  64
ENDBRANCH  57  61
ENDBRANCH  56  59
BRANCH  56  88
ATOM     88  CB  LYS A   5      38.962  23.714  43.399  0.00  0.00    +0.029 C 
BRANCH  88  89
ATOM     89  CG  LYS A   5      40.323  24.183  43.789  0.00  0.00    +0.000 C 
BRANCH  89  90
ATOM     90  CD  LYS A   5      40.838  24.974  42.602  0.00  0.00    -0.024 C 
BRANCH  90  91
ATOM     91  CE  LYS A   5      42.343  25.142  42.723  0.00  0.00    -0.086 C 
BRANCH  91  92
ATOM     92  NZ  LYS A   5      43.009  23.843  42.808  0.00  0.00    +0.380 N 
ATOM     93  HZ1 LYS A   5      42.661  23.331  43.644  0.00  0.00    -0.089 HD
ATOM     94  HZ2 LYS A   5      44.036  23.986  42.890  0.00  0.00    -0.089 HD
ATOM     95  HZ3 LYS A   5      42.802  23.292  41.951  0.00  0.00    -0.089 HD
ENDBRANCH  91  92
ENDBRANCH  90  91
ENDBRANCH  89  90
ENDBRANCH  88  89
ENDBRANCH  56  88
ENDBRANCH  52  56
ENDBRANCH  51  53
ENDBRANCH  47  51
ENDBRANCH   1  48
BRANCH   1  96
ATOM     96  CB  ARG A   7      41.014  26.559  51.447  0.00  0.00    +0.033 C 
BRANCH  96  97
ATOM     97  CG  ARG A   7      42.020  26.419  52.537  0.00  0.00    +0.045 C 
BRANCH  97  98
ATOM     98  CD  ARG A   7      42.391  27.769  53.088  0.00  0.00    +0.174 C 
BRANCH  98  99
ATOM     99  NE  ARG A   7      41.320  28.561  53.692  0.00  0.00    -0.265 N 
ATOM    100  CZ  ARG A   7      41.023  28.567  55.000  0.00  0.00    +0.342 C 
ATOM    101  NH2 ARG A   7      41.644  27.779  55.880  0.00  0.00    -0.292 N 
ATOM    102 HH21 ARG A   7      41.382  27.816  56.886  0.00  0.00    +0.255 HD
ATOM    103 HH22 ARG A   7      42.389  27.128  55.560  0.00  0.00    +0.255 HD
ATOM    104  NH1 ARG A   7      40.062  29.386  55.422  0.00  0.00    -0.292 N 
ATOM    105 HH11 ARG A   7      39.808  29.414  56.430  0.00  0.00    +0.255 HD
ATOM    106 HH12 ARG A   7      39.565  29.998  54.743  0.00  0.00    +0.255 HD
ATOM    107  HE  ARG A   7      40.749  29.161  53.064  0.00  0.00    +0.259 HD
ENDBRANCH  98  99
ENDBRANCH  97  98
ENDBRANCH  96  97
ENDBRANCH   1  96
TORSDOF 44
REMARK  Name = ../refined-set-2016/1rbp/1rbp_pocket.pdb
REMARK  226 active torsions:
REMARK  status: ('A' for Active; 'I' for Inactive)
REMARK    1  A    between atoms: _1  and  _3
REMARK    2  A    between atoms: _3  and  _4
REMARK    3  A    between atoms: _3  and  _6
REMARK    4  A    between atoms: _6  and  _7
REMARK    5  A    between atoms: _13  and  _15
REMARK    6  A    between atoms: _15  and  _16
REMARK    7  A    between atoms: _15  and  _18
REMARK    8  A    between atoms: _18  and  _19
REMARK    9  A    between atoms: _29  and  _31
REMARK   10  A    between atoms: _31  and  _32
REMARK   11  A    between atoms: _36  and  _37
REMARK   12  A    between atoms: _42  and  _44
REMARK   13  A    between atoms: _44  and  _45
REMARK   14  A    between atoms: _44  and  _47
REMARK   15  A    between atoms: _47  and  _48
REMARK   16  A    between atoms: _48  and  _49
REMARK   17  A    between atoms: _52  and  _54
REMARK   18  A    between atoms: _54  and  _55
REMARK   19  A    between atoms: _57  and  _59
REMARK   20  A    between atoms: _59  and  _60
REMARK   21  A    between atoms: _59  and  _62
REMARK   22  A    between atoms: _62  and  _63
REMARK   23  A    between atoms: _66  and  _68
REMARK   24  A    between atoms: _68  and  _69
REMARK   25  A    between atoms: _68  and  _71
REMARK   26  A    between atoms: _71  and  _72
REMARK   27  A    between atoms: _78  and  _80
REMARK   28  A    between atoms: _80  and  _81
REMARK   29  A    between atoms: _80  and  _83
REMARK   30  A    between atoms: _83  and  _84
REMARK   31  A    between atoms: _87  and  _89
REMARK   32  A    between atoms: _89  and  _90
REMARK   33  A    between atoms: _89  and  _92
REMARK   34  A    between atoms: _92  and  _93
REMARK   35  A    between atoms: _93  and  _94
REMARK   36  A    between atoms: _99  and  _101
REMARK   37  A    between atoms: _101  and  _102
REMARK   38  A    between atoms: _101  and  _104
REMARK   39  A    between atoms: _104  and  _105
REMARK   40  A    between atoms: _108  and  _110
REMARK   41  A    between atoms: _110  and  _111
REMARK   42  A    between atoms: _110  and  _113
REMARK   43  A    between atoms: _116  and  _118
REMARK   44  A    between atoms: _118  and  _119
REMARK   45  A    between atoms: _122  and  _124
REMARK   46  A    between atoms: _124  and  _125
REMARK   47  A    between atoms: _124  and  _127
REMARK   48  A    between atoms: _127  and  _128
REMARK   49  A    between atoms: _128  and  _129
REMARK   50  A    between atoms: _132  and  _134
REMARK   51  A    between atoms: _134  and  _135
REMARK   52  A    between atoms: _134  and  _137
REMARK   53  A    between atoms: _137  and  _138
REMARK   54  A    between atoms: _144  and  _146
REMARK   55  A    between atoms: _146  and  _147
REMARK   56  A    between atoms: _146  and  _149
REMARK   57  A    between atoms: _149  and  _150
REMARK   58  A    between atoms: _152  and  _154
REMARK   59  A    between atoms: _154  and  _155
REMARK   60  A    between atoms: _154  and  _157
REMARK   61  A    between atoms: _157  and  _158
REMARK   62  A    between atoms: _160  and  _162
REMARK   63  A    between atoms: _162  and  _163
REMARK   64  A    between atoms: _166  and  _168
REMARK   65  A    between atoms: _168  and  _169
REMARK   66  A    between atoms: _168  and  _171
REMARK   67  A    between atoms: _171  and  _172
REMARK   68  A    between atoms: _175  and  _177
REMARK   69  A    between atoms: _177  and  _178
REMARK   70  A    between atoms: _181  and  _183
REMARK   71  A    between atoms: _183  and  _184
REMARK   72  A    between atoms: _183  and  _186
REMARK   73  A    between atoms: _186  and  _187
REMARK   74  A    between atoms: _187  and  _188
REMARK   75  A    between atoms: _188  and  _189
REMARK   76  A    between atoms: _189  and  _190
REMARK   77  A    between atoms: _194  and  _196
REMARK   78  A    between atoms: _196  and  _197
REMARK   79  A    between atoms: _199  and  _201
REMARK   80  A    between atoms: _201  and  _202
REMARK   81  A    between atoms: _201  and  _204
REMARK   82  A    between atoms: _204  and  _205
REMARK   83  A    between atoms: _205  and  _206
REMARK   84  A    between atoms: _206  and  _207
REMARK   85  A    between atoms: _216  and  _218
REMARK   86  A    between atoms: _218  and  _219
REMARK   87  A    between atoms: _218  and  _221
REMARK   88  A    between atoms: _224  and  _226
REMARK   89  A    between atoms: _226  and  _227
REMARK   90  A    between atoms: _226  and  _229
REMARK   91  A    between atoms: _229  and  _230
REMARK   92  A    between atoms: _230  and  _231
REMARK   93  A    between atoms: _231  and  _232
REMARK   94  A    between atoms: _241  and  _243
REMARK   95  A    between atoms: _243  and  _244
REMARK   96  A    between atoms: _243  and  _246
REMARK   97  A    between atoms: _246  and  _247
REMARK   98  A    between atoms: _250  and  _252
REMARK   99  A    between atoms: _252  and  _253
REMARK  100  A    between atoms: _252  and  _255
REMARK  101  A    between atoms: _255  and  _256
REMARK  102  A    between atoms: _259  and  _261
REMARK  103  A    between atoms: _261  and  _262
REMARK  104  A    between atoms: _261  and  _264
REMARK  105  A    between atoms: _267  and  _269
REMARK  106  A    between atoms: _269  and  _270
REMARK  107  A    between atoms: _273  and  _275
REMARK  108  A    between atoms: _275  and  _276
REMARK  109  A    between atoms: _275  and  _278
REMARK  110  A    between atoms: _278  and  _279
REMARK  111  A    between atoms: _282  and  _284
REMARK  112  A    between atoms: _284  and  _285
REMARK  113  A    between atoms: _284  and  _287
REMARK  114  A    between atoms: _287  and  _288
REMARK  115  A    between atoms: _288  and  _289
REMARK  116  A    between atoms: _291  and  _293
REMARK  117  A    between atoms: _293  and  _294
REMARK  118  A    between atoms: _293  and  _296
REMARK  119  A    between atoms: _299  and  _301
REMARK  120  A    between atoms: _301  and  _302
REMARK  121  A    between atoms: _304  and  _306
REMARK  122  A    between atoms: _306  and  _307
REMARK  123  A    between atoms: _306  and  _309
REMARK  124  A    between atoms: _309  and  _310
REMARK  125  A    between atoms: _313  and  _315
REMARK  126  A    between atoms: _315  and  _316
REMARK  127  A    between atoms: _315  and  _318
REMARK  128  A    between atoms: _318  and  _319
REMARK  129  A    between atoms: _325  and  _327
REMARK  130  A    between atoms: _327  and  _328
REMARK  131  A    between atoms: _327  and  _330
REMARK  132  A    between atoms: _330  and  _331
REMARK  133  A    between atoms: _331  and  _332
REMARK  134  A    between atoms: _334  and  _336
REMARK  135  A    between atoms: _336  and  _337
REMARK  136  A    between atoms: _336  and  _339
REMARK  137  A    between atoms: _339  and  _340
REMARK  138  A    between atoms: _340  and  _341
REMARK  139  A    between atoms: _341  and  _342
REMARK  140  A    between atoms: _342  and  _343
REMARK  141  A    between atoms: _347  and  _349
REMARK  142  A    between atoms: _349  and  _350
REMARK  143  A    between atoms: _349  and  _352
REMARK  144  A    between atoms: _352  and  _353
REMARK  145  A    between atoms: _358  and  _359
REMARK  146  A    between atoms: _361  and  _363
REMARK  147  A    between atoms: _363  and  _364
REMARK  148  A    between atoms: _363  and  _366
REMARK  149  A    between atoms: _366  and  _367
REMARK  150  A    between atoms: _377  and  _379
REMARK  151  A    between atoms: _379  and  _380
REMARK  152  A    between atoms: _382  and  _384
REMARK  153  A    between atoms: _384  and  _385
REMARK  154  A    between atoms: _384  and  _387
REMARK  155  A    between atoms: _387  and  _388
REMARK  156  A    between atoms: _394  and  _396
REMARK  157  A    between atoms: _396  and  _397
REMARK  158  A    between atoms: _396  and  _399
REMARK  159  A    between atoms: _399  and  _400
REMARK  160  A    between atoms: _403  and  _405
REMARK  161  A    between atoms: _405  and  _406
REMARK  162  A    between atoms: _405  and  _408
REMARK  163  A    between atoms: _408  and  _409
REMARK  164  A    between atoms: _409  and  _410
REMARK  165  A    between atoms: _415  and  _417
REMARK  166  A    between atoms: _417  and  _418
REMARK  167  A    between atoms: _417  and  _420
REMARK  168  A    between atoms: _420  and  _421
REMARK  169  A    between atoms: _421  and  _422
REMARK  170  A    between atoms: _422  and  _423
REMARK  171  A    between atoms: _423  and  _424
REMARK  172  A    between atoms: _428  and  _430
REMARK  173  A    between atoms: _430  and  _431
REMARK  174  A    between atoms: _433  and  _435
REMARK  175  A    between atoms: _435  and  _436
REMARK  176  A    between atoms: _435  and  _438
REMARK  177  A    between atoms: _438  and  _439
REMARK  178  A    between atoms: _442  and  _444
REMARK  179  A    between atoms: _444  and  _445
REMARK  180  A    between atoms: _444  and  _447
REMARK  181  A    between atoms: _447  and  _448
REMARK  182  A    between atoms: _451  and  _453
REMARK  183  A    between atoms: _453  and  _454
REMARK  184  A    between atoms: _453  and  _456
REMARK  185  A    between atoms: _456  and  _457
REMARK  186  A    between atoms: _462  and  _464
REMARK  187  A    between atoms: _464  and  _465
REMARK  188  A    between atoms: _464  and  _467
REMARK  189  A    between atoms: _467  and  _468
REMARK  190  A    between atoms: _478  and  _480
REMARK  191  A    between atoms: _480  and  _481
REMARK  192  A    between atoms: _480  and  _483
REMARK  193  A    between atoms: _483  and  _484
REMARK  194  A    between atoms: _484  and  _485
REMARK  195  A    between atoms: _490  and  _492
REMARK  196  A    between atoms: _492  and  _493
REMARK  197  A    between atoms: _492  and  _495
REMARK  198  A    between atoms: _495  and  _496
REMARK  199  A    between atoms: _501  and  _502
REMARK  200  A    between atoms: _504  and  _506
REMARK  201  A    between atoms: _506  and  _507
REMARK  202  A    between atoms: _506  and  _509
REMARK  203  A    between atoms: _509  and  _510
REMARK  204  A    between atoms: _512  and  _514
REMARK  205  A    between atoms: _514  and  _515
REMARK  206  A    between atoms: _514  and  _517
REMARK  207  A    between atoms: _517  and  _518
REMARK  208  A    between atoms: _518  and  _519
REMARK  209  A    between atoms: _519  and  _520
REMARK  210  A    between atoms: _529  and  _531
REMARK  211  A    between atoms: _531  and  _532
REMARK  212  A    between atoms: _531  and  _534
REMARK  213  A    between atoms: _534  and  _535
REMARK  214  A    between atoms: _540  and  _541
REMARK  215  A    between atoms: _543  and  _545
REMARK  216  A    between atoms: _545  and  _546
REMARK  217  A    between atoms: _545  and  _548
REMARK  218  A    between atoms: _548  and  _549
REMARK  219  A    between atoms: _551  and  _553
REMARK  220  A    between atoms: _553  and  _554
REMARK  221  A    between atoms: _553  and  _556
REMARK  222  A    between atoms: _556  and  _557
REMARK  223  A    between atoms: _563  and  _565
REMARK  224  A    between atoms: _565  and  _566
REMARK  225  A    between atoms: _565  and  _568
REMARK  226  A    between atoms: _568  and  _569
REMARK                            x       y       z     vdW  Elec       q    Type
REMARK                         _______ _______ _______ _____ _____    ______ ____
ROOT
ATOM      1  CA  VAL A   1      44.417  21.447  52.291  0.00  0.00    +0.133 C 
ENDROOT
BRANCH   1   2
ATOM      2  CB  VAL A   1      43.955  20.001  52.395  0.00  0.00    +0.023 C 
ATOM      3  CG2 VAL A   1      42.653  19.858  53.192  0.00  0.00    +0.002 C 
ATOM      4  CG1 VAL A   1      45.082  19.243  53.020  0.00  0.00    +0.002 C 
ENDBRANCH   1   2
BRANCH   1   5
ATOM      5  N   VAL A   1      44.524  22.076  53.580  0.00  0.00    -0.239 NA
ATOM      6  H   VAL A   1      44.021  21.683  54.401  0.00  0.00    +0.142 HD
ENDBRANCH   1   5
BRANCH   1   7
ATOM      7  C   VAL A   1      43.446  22.152  51.368  0.00  0.00    +0.224 C 
ATOM      8  O   VAL A   1      42.353  22.612  51.713  0.00  0.00    -0.287 OA
ENDBRANCH   1   7
TORSDOF 3
REMARK  Name = ../refined-set-2016/1rbp/1rbp_pocket.pdb
REMARK  226 active torsions:
REMARK  status: ('A' for Active; 'I' for Inactive)
REMARK    1  A    between atoms: _1  and  _3
REMARK    2  A    between atoms: _3  and  _4
REMARK    3  A    between atoms: _3  and  _6
REMARK    4  A    between atoms: _6  and  _7
REMARK    5  A    between atoms: _13  and  _15
REMARK    6  A    between atoms: _15  and  _16
REMARK    7  A    between atoms: _15  and  _18
REMARK    8  A    between atoms: _18  and  _19
REMARK    9  A    between atoms: _29  and  _31
REMARK   10  A    between atoms: _31  and  _32
REMARK   11  A    between atoms: _36  and  _37
REMARK   12  A    between atoms: _42  and  _44
REMARK   13  A    between atoms: _44  and  _45
REMARK   14  A    between atoms: _44  and  _47
REMARK   15  A    between atoms: _47  and  _48
REMARK   16  A    between atoms: _48  and  _49
REMARK   17  A    between atoms: _52  and  _54
REMARK   18  A    between atoms: _54  and  _55
REMARK   19  A    between atoms: _57  and  _59
REMARK   20  A    between atoms: _59  and  _60
REMARK   21  A    between atoms: _59  and  _62
REMARK   22  A    between atoms: _62  and  _63
REMARK   23  A    between atoms: _66  and  _68
REMARK   24  A    between atoms: _68  and  _69
REMARK   25  A    between atoms: _68  and  _71
REMARK   26  A    between atoms: _71  and  _72
REMARK   27  A    between atoms: _78  and  _80
REMARK   28  A    between atoms: _80  and  _81
REMARK   29  A    between atoms: _80  and  _83
REMARK   30  A    between atoms: _83  and  _84
REMARK   31  A    between atoms: _87  and  _89
REMARK   32  A    between atoms: _89  and  _90
REMARK   33  A    between atoms: _89  and  _92
REMARK   34  A    between atoms: _92  and  _93
REMARK   35  A    between atoms: _93  and  _94
REMARK   36  A    between atoms: _99  and  _101
REMARK   37  A    between atoms: _101  and  _102
REMARK   38  A    between atoms: _101  and  _104
REMARK   39  A    between atoms: _104  and  _105
REMARK   40  A    between atoms: _108  and  _110
REMARK   41  A    between atoms: _110  and  _111
REMARK   42  A    between atoms: _110  and  _113
REMARK   43  A    between atoms: _116  and  _118
REMARK   44  A    between atoms: _118  and  _119
REMARK   45  A    between atoms: _122  and  _124
REMARK   46  A    between atoms: _124  and  _125
REMARK   47  A    between atoms: _124  and  _127
REMARK   48  A    between atoms: _127  and  _128
REMARK   49  A    between atoms: _128  and  _129
REMARK   50  A    between atoms: _132  and  _134
REMARK   51  A    between atoms: _134  and  _135
REMARK   52  A    between atoms: _134  and  _137
REMARK   53  A    between atoms: _137  and  _138
REMARK   54  A    between atoms: _144  and  _146
REMARK   55  A    between atoms: _146  and  _147
REMARK   56  A    between atoms: _146  and  _149
REMARK   57  A    between atoms: _149  and  _150
REMARK   58  A    between atoms: _152  and  _154
REMARK   59  A    between atoms: _154  and  _155
REMARK   60  A    between atoms: _154  and  _157
REMARK   61  A    between atoms: _157  and  _158
REMARK   62  A    between atoms: _160  and  _162
REMARK   63  A    between atoms: _162  and  _163
REMARK   64  A    between atoms: _166  and  _168
REMARK   65  A    between atoms: _168  and  _169
REMARK   66  A    between atoms: _168  and  _171
REMARK   67  A    between atoms: _171  and  _172
REMARK   68  A    between atoms: _175  and  _177
REMARK   69  A    between atoms: _177  and  _178
REMARK   70  A    between atoms: _181  and  _183
REMARK   71  A    between atoms: _183  and  _184
REMARK   72  A    between atoms: _183  and  _186
REMARK   73  A    between atoms: _186  and  _187
REMARK   74  A    between atoms: _187  and  _188
REMARK   75  A    between atoms: _188  and  _189
REMARK   76  A    between atoms: _189  and  _190
REMARK   77  A    between atoms: _194  and  _196
REMARK   78  A    between atoms: _196  and  _197
REMARK   79  A    between atoms: _199  and  _201
REMARK   80  A    between atoms: _201  and  _202
REMARK   81  A    between atoms: _201  and  _204
REMARK   82  A    between atoms: _204  and  _205
REMARK   83  A    between atoms: _205  and  _206
REMARK   84  A    between atoms: _206  and  _207
REMARK   85  A    between atoms: _216  and  _218
REMARK   86  A    between atoms: _218  and  _219
REMARK   87  A    between atoms: _218  and  _221
REMARK   88  A    between atoms: _224  and  _226
REMARK   89  A    between atoms: _226  and  _227
REMARK   90  A    between atoms: _226  and  _229
REMARK   91  A    between atoms: _229  and  _230
REMARK   92  A    between atoms: _230  and  _231
REMARK   93  A    between atoms: _231  and  _232
REMARK   94  A    between atoms: _241  and  _243
REMARK   95  A    between atoms: _243  and  _244
REMARK   96  A    between atoms: _243  and  _246
REMARK   97  A    between atoms: _246  and  _247
REMARK   98  A    between atoms: _250  and  _252
REMARK   99  A    between atoms: _252  and  _253
REMARK  100  A    between atoms: _252  and  _255
REMARK  101  A    between atoms: _255  and  _256
REMARK  102  A    between atoms: _259  and  _261
REMARK  103  A    between atoms: _261  and  _262
REMARK  104  A    between atoms: _261  and  _264
REMARK  105  A    between atoms: _267  and  _269
REMARK  106  A    between atoms: _269  and  _270
REMARK  107  A    between atoms: _273  and  _275
REMARK  108  A    between atoms: _275  and  _276
REMARK  109  A    between atoms: _275  and  _278
REMARK  110  A    between atoms: _278  and  _279
REMARK  111  A    between atoms: _282  and  _284
REMARK  112  A    between atoms: _284  and  _285
REMARK  113  A    between atoms: _284  and  _287
REMARK  114  A    between atoms: _287  and  _288
REMARK  115  A    between atoms: _288  and  _289
REMARK  116  A    between atoms: _291  and  _293
REMARK  117  A    between atoms: _293  and  _294
REMARK  118  A    between atoms: _293  and  _296
REMARK  119  A    between atoms: _299  and  _301
REMARK  120  A    between atoms: _301  and  _302
REMARK  121  A    between atoms: _304  and  _306
REMARK  122  A    between atoms: _306  and  _307
REMARK  123  A    between atoms: _306  and  _309
REMARK  124  A    between atoms: _309  and  _310
REMARK  125  A    between atoms: _313  and  _315
REMARK  126  A    between atoms: _315  and  _316
REMARK  127  A    between atoms: _315  and  _318
REMARK  128  A    between atoms: _318  and  _319
REMARK  129  A    between atoms: _325  and  _327
REMARK  130  A    between atoms: _327  and  _328
REMARK  131  A    between atoms: _327  and  _330
REMARK  132  A    between atoms: _330  and  _331
REMARK  133  A    between atoms: _331  and  _332
REMARK  134  A    between atoms: _334  and  _336
REMARK  135  A    between atoms: _336  and  _337
REMARK  136  A    between atoms: _336  and  _339
REMARK  137  A    between atoms: _339  and  _340
REMARK  138  A    between atoms: _340  and  _341
REMARK  139  A    between atoms: _341  and  _342
REMARK  140  A    between atoms: _342  and  _343
REMARK  141  A    between atoms: _347  and  _349
REMARK  142  A    between atoms: _349  and  _350
REMARK  143  A    between atoms: _349  and  _352
REMARK  144  A    between atoms: _352  and  _353
REMARK  145  A    between atoms: _358  and  _359
REMARK  146  A    between atoms: _361  and  _363
REMARK  147  A    between atoms: _363  and  _364
REMARK  148  A    between atoms: _363  and  _366
REMARK  149  A    between atoms: _366  and  _367
REMARK  150  A    between atoms: _377  and  _379
REMARK  151  A    between atoms: _379  and  _380
REMARK  152  A    between atoms: _382  and  _384
REMARK  153  A    between atoms: _384  and  _385
REMARK  154  A    between atoms: _384  and  _387
REMARK  155  A    between atoms: _387  and  _388
REMARK  156  A    between atoms: _394  and  _396
REMARK  157  A    between atoms: _396  and  _397
REMARK  158  A    between atoms: _396  and  _399
REMARK  159  A    between atoms: _399  and  _400
REMARK  160  A    between atoms: _403  and  _405
REMARK  161  A    between atoms: _405  and  _406
REMARK  162  A    between atoms: _405  and  _408
REMARK  163  A    between atoms: _408  and  _409
REMARK  164  A    between atoms: _409  and  _410
REMARK  165  A    between atoms: _415  and  _417
REMARK  166  A    between atoms: _417  and  _418
REMARK  167  A    between atoms: _417  and  _420
REMARK  168  A    between atoms: _420  and  _421
REMARK  169  A    between atoms: _421  and  _422
REMARK  170  A    between atoms: _422  and  _423
REMARK  171  A    between atoms: _423  and  _424
REMARK  172  A    between atoms: _428  and  _430
REMARK  173  A    between atoms: _430  and  _431
REMARK  174  A    between atoms: _433  and  _435
REMARK  175  A    between atoms: _435  and  _436
REMARK  176  A    between atoms: _435  and  _438
REMARK  177  A    between atoms: _438  and  _439
REMARK  178  A    between atoms: _442  and  _444
REMARK  179  A    between atoms: _444  and  _445
REMARK  180  A    between atoms: _444  and  _447
REMARK  181  A    between atoms: _447  and  _448
REMARK  182  A    between atoms: _451  and  _453
REMARK  183  A    between atoms: _453  and  _454
REMARK  184  A    between atoms: _453  and  _456
REMARK  185  A    between atoms: _456  and  _457
REMARK  186  A    between atoms: _462  and  _464
REMARK  187  A    between atoms: _464  and  _465
REMARK  188  A    between atoms: _464  and  _467
REMARK  189  A    between atoms: _467  and  _468
REMARK  190  A    between atoms: _478  and  _480
REMARK  191  A    between atoms: _480  and  _481
REMARK  192  A    between atoms: _480  and  _483
REMARK  193  A    between atoms: _483  and  _484
REMARK  194  A    between atoms: _484  and  _485
REMARK  195  A    between atoms: _490  and  _492
REMARK  196  A    between atoms: _492  and  _493
REMARK  197  A    between atoms: _492  and  _495
REMARK  198  A    between atoms: _495  and  _496
REMARK  199  A    between atoms: _501  and  _502
REMARK  200  A    between atoms: _504  and  _506
REMARK  201  A    between atoms: _506  and  _507
REMARK  202  A    between atoms: _506  and  _509
REMARK  203  A    between atoms: _509  and  _510
REMARK  204  A    between atoms: _512  and  _514
REMARK  205  A    between atoms: _514  and  _515
REMARK  206  A    between atoms: _514  and  _517
REMARK  207  A    between atoms: _517  and  _518
REMARK  208  A    between atoms: _518  and  _519
REMARK  209  A    between atoms: _519  and  _520
REMARK  210  A    between atoms: _529  and  _531
REMARK  211  A    between atoms: _531  and  _532
REMARK  212  A    between atoms: _531  and  _534
REMARK  213  A    between atoms: _534  and  _535
REMARK  214  A    between atoms: _540  and  _541
REMARK  215  A    between atoms: _543  and  _545
REMARK  216  A    between atoms: _545  and  _546
REMARK  217  A    between atoms: _545  and  _548
REMARK  218  A    between atoms: _548  and  _549
REMARK  219  A    between atoms: _551  and  _553
REMARK  220  A    between atoms: _553  and  _554
REMARK  221  A    between atoms: _553  and  _556
REMARK  222  A    between atoms: _556  and  _557
REMARK  223  A    between atoms: _563  and  _565
REMARK  224  A    between atoms: _565  and  _566
REMARK  225  A    between atoms: _565  and  _568
REMARK  226  A    between atoms: _568  and  _569
REMARK                            x       y       z     vdW  Elec       q    Type
REMARK                         _______ _______ _______ _____ _____    ______ ____
ROOT
ATOM      1  CA  VAL A   4      34.615  15.110  42.607  0.00  0.00    +0.149 C 
ENDROOT
BRANCH   1   3
ATOM      2  C   MET A   3      35.881  16.842  43.784  0.00  0.00    +0.241 C 
ATOM      3  N   VAL A   4      35.332  15.618  43.752  0.00  0.00    -0.297 N 
ATOM      4  H   VAL A   4      35.427  15.008  44.589  0.00  0.00    +0.150 HD
ATOM      5  O   MET A   3      35.964  17.604  42.806  0.00  0.00    -0.273 OA
BRANCH   2   6
ATOM      6  CA  MET A   3      36.479  17.158  45.162  0.00  0.00    +0.149 C 
BRANCH   6   9
ATOM      7  C   ASP A   2      38.879  17.428  45.161  0.00  0.00    +0.241 C 
ATOM      8  O   ASP A   2      39.081  16.258  45.443  0.00  0.00    -0.273 OA
ATOM      9  N   MET A   3      37.677  17.942  45.062  0.00  0.00    -0.297 N 
ATOM     10  H   MET A   3      37.587  18.966  44.904  0.00  0.00    +0.150 HD
BRANCH   7  11
ATOM     11  CA  ASP A   2      39.958  18.476  45.032  0.00  0.00    +0.160 C 
BRANCH  11  14
ATOM     12  C   ALA A   1      40.166  19.854  47.042  0.00  0.00    +0.238 C 
ATOM     13  O   ALA A   1      39.736  20.878  46.507  0.00  0.00    -0.274 OA
ATOM     14  N   ASP A   2      40.404  18.699  46.388  0.00  0.00    -0.297 N 
ATOM     15  H   ASP A   2      40.926  17.943  46.876  0.00  0.00    +0.150 HD
BRANCH  12  16
ATOM     16  CA  ALA A   1      40.558  19.863  48.516  0.00  0.00    +0.145 C 
ATOM     17  CB  ALA A   1      39.273  19.735  49.323  0.00  0.00    +0.028 C 
BRANCH  16  18
ATOM     18  N   ALA A   1      41.273  21.072  48.859  0.00  0.00    -0.238 NA
ATOM     19  H   ALA A   1      40.754  21.818  49.365  0.00  0.00    +0.142 HD
ENDBRANCH  16  18
ENDBRANCH  12  16
ENDBRANCH  11  14
BRANCH  11  20
ATOM     20  CB  ASP A   2      41.083  17.961  44.123  0.00  0.00    +0.143 C 
BRANCH  20  21
ATOM     21  CG  ASP A   2      42.124  19.019  43.804  0.00  0.00    +0.367 C 
ATOM     22  OD2 ASP A   2      43.259  18.887  44.264  0.00  0.00    -0.246 OA
ATOM     23  OD1 ASP A   2      41.806  19.979  43.103  0.00  0.00    -0.246 OA
ENDBRANCH  20  21
ENDBRANCH  11  20
ENDBRANCH   7  11
ENDBRANCH   6   9
BRANCH   6  24
ATOM     24  CB  MET A   3      35.499  17.916  46.005  0.00  0.00    +0.041 C 
BRANCH  24  25
ATOM     25  CG  MET A   3      36.022  18.344  47.371  0.00  0.00    +0.060 C 
BRANCH  25  26
ATOM     26  SD  MET A   3      36.658  17.023  48.439  0.00  0.00    -0.139 S 
ATOM     27  CE  MET A   3      35.148  16.117  48.652  0.00  0.00    +0.069 C 
ENDBRANCH  25  26
ENDBRANCH  24  25
ENDBRANCH   6  24
ENDBRANCH   2   6
ENDBRANCH   1   3
BRANCH   1  28
ATOM     28  C   VAL A   4      33.210  14.713  43.063  0.00  0.00    +0.241 C 
ATOM     29  O   VAL A   4      33.049  14.035  44.088  0.00  0.00    -0.273 OA
ATOM     30  N   GLY A   5      32.206  15.156  42.284  0.00  0.00    -0.295 N 
ATOM     31  H   GLY A   5      32.439  15.806  41.506  0.00  0.00    +0.150 HD
BRANCH  30  32
ATOM     32  CA  GLY A   5      30.827  14.782  42.465  0.00  0.00    +0.176 C 
BRANCH  32  33
ATOM     33  C   GLY A   5      30.197  14.245  41.173  0.00  0.00    +0.243 C 
ATOM     34  N   THR A   6      29.483  13.106  41.234  0.00  0.00    -0.295 N 
ATOM     35  H   THR A   6      29.517  12.545  42.109  0.00  0.00    +0.150 HD
ATOM     36  O   GLY A   5      30.385  14.823  40.096  0.00  0.00    -0.273 OA
BRANCH  34  37
ATOM     37  CA  THR A   6      28.663  12.623  40.128  0.00  0.00    +0.176 C 
BRANCH  37  38
ATOM     38  C   THR A   6      27.195  12.760  40.564  0.00  0.00    +0.243 C 
ATOM     39  O   THR A   6      26.885  12.508  41.727  0.00  0.00    -0.273 OA
ATOM     40  N   PHE A   7      26.292  13.163  39.650  0.00  0.00    -0.298 N 
ATOM     41  H   PHE A   7      26.633  13.293  38.676  0.00  0.00    +0.150 HD
BRANCH  40  42
ATOM     42  CA  PHE A   7      24.869  13.437  39.900  0.00  0.00    +0.141 C 
BRANCH  42  43
ATOM     43  C   PHE A   7      23.901  12.512  39.176  0.00  0.00    +0.227 C 
ATOM     44  O   PHE A   7      23.964  12.274  37.969  0.00  0.00    -0.286 OA
ENDBRANCH  42  43
BRANCH  42  45
ATOM     45  CB  PHE A   7      24.453  14.849  39.496  0.00  0.00    +0.054 C 
BRANCH  45  46
ATOM     46  CG  PHE A   7      25.265  15.922  40.198  0.00  0.00    -0.020 A 
ATOM     47  CD2 PHE A   7      24.820  16.495  41.373  0.00  0.00    -0.004 A 
ATOM     48  CE2 PHE A   7      25.564  17.490  41.967  0.00  0.00    -0.000 A 
ATOM     49  CZ  PHE A   7      26.742  17.923  41.416  0.00  0.00    -0.000 A 
ATOM     50  CE1 PHE A   7      27.195  17.346  40.248  0.00  0.00    -0.000 A 
ATOM     51  CD1 PHE A   7      26.461  16.348  39.638  0.00  0.00    -0.004 A 
ENDBRANCH  45  46
ENDBRANCH  42  45
ENDBRANCH  40  42
ENDBRANCH  37  38
BRANCH  37  52
ATOM     52  CB  THR A   6      28.997  11.135  39.769  0.00  0.00    +0.137 C 
ATOM     53  CG2 THR A   6      30.401  10.909  39.212  0.00  0.00    +0.034 C 
BRANCH  52  54
ATOM     54  OG1 THR A   6      28.772  10.414  40.970  0.00  0.00    -0.382 OA
ATOM     55  HG1 THR A   6      28.965   9.455  40.819  0.00  0.00    +0.210 HD
ENDBRANCH  52  54
ENDBRANCH  37  52
ENDBRANCH  34  37
ENDBRANCH  32  33
ENDBRANCH  30  32
ENDBRANCH   1  28
BRANCH   1  56
ATOM     56  CB  VAL A   4      35.272  13.859  42.016  0.00  0.00    +0.027 C 
ATOM     57  CG2 VAL A   4      36.795  13.947  42.084  0.00  0.00    +0.002 C 
ATOM     58  CG1 VAL A   4      34.699  13.673  40.615  0.00  0.00    +0.002 C 
ENDBRANCH   1  56
TORSDOF 24
REMARK  Name = ../refined-set-2016/1rbp/1rbp_pocket.pdb
REMARK  226 active torsions:
REMARK  status: ('A' for Active; 'I' for Inactive)
REMARK    1  A    between atoms: _1  and  _3
REMARK    2  A    between atoms: _3  and  _4
REMARK    3  A    between atoms: _3  and  _6
REMARK    4  A    between atoms: _6  and  _7
REMARK    5  A    between atoms: _13  and  _15
REMARK    6  A    between atoms: _15  and  _16
REMARK    7  A    between atoms: _15  and  _18
REMARK    8  A    between atoms: _18  and  _19
REMARK    9  A    between atoms: _29  and  _31
REMARK   10  A    between atoms: _31  and  _32
REMARK   11  A    between atoms: _36  and  _37
REMARK   12  A    between atoms: _42  and  _44
REMARK   13  A    between atoms: _44  and  _45
REMARK   14  A    between atoms: _44  and  _47
REMARK   15  A    between atoms: _47  and  _48
REMARK   16  A    between atoms: _48  and  _49
REMARK   17  A    between atoms: _52  and  _54
REMARK   18  A    between atoms: _54  and  _55
REMARK   19  A    between atoms: _57  and  _59
REMARK   20  A    between atoms: _59  and  _60
REMARK   21  A    between atoms: _59  and  _62
REMARK   22  A    between atoms: _62  and  _63
REMARK   23  A    between atoms: _66  and  _68
REMARK   24  A    between atoms: _68  and  _69
REMARK   25  A    between atoms: _68  and  _71
REMARK   26  A    between atoms: _71  and  _72
REMARK   27  A    between atoms: _78  and  _80
REMARK   28  A    between atoms: _80  and  _81
REMARK   29  A    between atoms: _80  and  _83
REMARK   30  A    between atoms: _83  and  _84
REMARK   31  A    between atoms: _87  and  _89
REMARK   32  A    between atoms: _89  and  _90
REMARK   33  A    between atoms: _89  and  _92
REMARK   34  A    between atoms: _92  and  _93
REMARK   35  A    between atoms: _93  and  _94
REMARK   36  A    between atoms: _99  and  _101
REMARK   37  A    between atoms: _101  and  _102
REMARK   38  A    between atoms: _101  and  _104
REMARK   39  A    between atoms: _104  and  _105
REMARK   40  A    between atoms: _108  and  _110
REMARK   41  A    between atoms: _110  and  _111
REMARK   42  A    between atoms: _110  and  _113
REMARK   43  A    between atoms: _116  and  _118
REMARK   44  A    between atoms: _118  and  _119
REMARK   45  A    between atoms: _122  and  _124
REMARK   46  A    between atoms: _124  and  _125
REMARK   47  A    between atoms: _124  and  _127
REMARK   48  A    between atoms: _127  and  _128
REMARK   49  A    between atoms: _128  and  _129
REMARK   50  A    between atoms: _132  and  _134
REMARK   51  A    between atoms: _134  and  _135
REMARK   52  A    between atoms: _134  and  _137
REMARK   53  A    between atoms: _137  and  _138
REMARK   54  A    between atoms: _144  and  _146
REMARK   55  A    between atoms: _146  and  _147
REMARK   56  A    between atoms: _146  and  _149
REMARK   57  A    between atoms: _149  and  _150
REMARK   58  A    between atoms: _152  and  _154
REMARK   59  A    between atoms: _154  and  _155
REMARK   60  A    between atoms: _154  and  _157
REMARK   61  A    between atoms: _157  and  _158
REMARK   62  A    between atoms: _160  and  _162
REMARK   63  A    between atoms: _162  and  _163
REMARK   64  A    between atoms: _166  and  _168
REMARK   65  A    between atoms: _168  and  _169
REMARK   66  A    between atoms: _168  and  _171
REMARK   67  A    between atoms: _171  and  _172
REMARK   68  A    between atoms: _175  and  _177
REMARK   69  A    between atoms: _177  and  _178
REMARK   70  A    between atoms: _181  and  _183
REMARK   71  A    between atoms: _183  and  _184
REMARK   72  A    between atoms: _183  and  _186
REMARK   73  A    between atoms: _186  and  _187
REMARK   74  A    between atoms: _187  and  _188
REMARK   75  A    between atoms: _188  and  _189
REMARK   76  A    between atoms: _189  and  _190
REMARK   77  A    between atoms: _194  and  _196
REMARK   78  A    between atoms: _196  and  _197
REMARK   79  A    between atoms: _199  and  _201
REMARK   80  A    between atoms: _201  and  _202
REMARK   81  A    between atoms: _201  and  _204
REMARK   82  A    between atoms: _204  and  _205
REMARK   83  A    between atoms: _205  and  _206
REMARK   84  A    between atoms: _206  and  _207
REMARK   85  A    between atoms: _216  and  _218
REMARK   86  A    between atoms: _218  and  _219
REMARK   87  A    between atoms: _218  and  _221
REMARK   88  A    between atoms: _224  and  _226
REMARK   89  A    between atoms: _226  and  _227
REMARK   90  A    between atoms: _226  and  _229
REMARK   91  A    between atoms: _229  and  _230
REMARK   92  A    between atoms: _230  and  _231
REMARK   93  A    between atoms: _231  and  _232
REMARK   94  A    between atoms: _241  and  _243
REMARK   95  A    between atoms: _243  and  _244
REMARK   96  A    between atoms: _243  and  _246
REMARK   97  A    between atoms: _246  and  _247
REMARK   98  A    between atoms: _250  and  _252
REMARK   99  A    between atoms: _252  and  _253
REMARK  100  A    between atoms: _252  and  _255
REMARK  101  A    between atoms: _255  and  _256
REMARK  102  A    between atoms: _259  and  _261
REMARK  103  A    between atoms: _261  and  _262
REMARK  104  A    between atoms: _261  and  _264
REMARK  105  A    between atoms: _267  and  _269
REMARK  106  A    between atoms: _269  and  _270
REMARK  107  A    between atoms: _273  and  _275
REMARK  108  A    between atoms: _275  and  _276
REMARK  109  A    between atoms: _275  and  _278
REMARK  110  A    between atoms: _278  and  _279
REMARK  111  A    between atoms: _282  and  _284
REMARK  112  A    between atoms: _284  and  _285
REMARK  113  A    between atoms: _284  and  _287
REMARK  114  A    between atoms: _287  and  _288
REMARK  115  A    between atoms: _288  and  _289
REMARK  116  A    between atoms: _291  and  _293
REMARK  117  A    between atoms: _293  and  _294
REMARK  118  A    between atoms: _293  and  _296
REMARK  119  A    between atoms: _299  and  _301
REMARK  120  A    between atoms: _301  and  _302
REMARK  121  A    between atoms: _304  and  _306
REMARK  122  A    between atoms: _306  and  _307
REMARK  123  A    between atoms: _306  and  _309
REMARK  124  A    between atoms: _309  and  _310
REMARK  125  A    between atoms: _313  and  _315
REMARK  126  A    between atoms: _315  and  _316
REMARK  127  A    between atoms: _315  and  _318
REMARK  128  A    between atoms: _318  and  _319
REMARK  129  A    between atoms: _325  and  _327
REMARK  130  A    between atoms: _327  and  _328
REMARK  131  A    between atoms: _327  and  _330
REMARK  132  A    between atoms: _330  and  _331
REMARK  133  A    between atoms: _331  and  _332
REMARK  134  A    between atoms: _334  and  _336
REMARK  135  A    between atoms: _336  and  _337
REMARK  136  A    between atoms: _336  and  _339
REMARK  137  A    between atoms: _339  and  _340
REMARK  138  A    between atoms: _340  and  _341
REMARK  139  A    between atoms: _341  and  _342
REMARK  140  A    between atoms: _342  and  _343
REMARK  141  A    between atoms: _347  and  _349
REMARK  142  A    between atoms: _349  and  _350
REMARK  143  A    between atoms: _349  and  _352
REMARK  144  A    between atoms: _352  and  _353
REMARK  145  A    between atoms: _358  and  _359
REMARK  146  A    between atoms: _361  and  _363
REMARK  147  A    between atoms: _363  and  _364
REMARK  148  A    between atoms: _363  and  _366
REMARK  149  A    between atoms: _366  and  _367
REMARK  150  A    between atoms: _377  and  _379
REMARK  151  A    between atoms: _379  and  _380
REMARK  152  A    between atoms: _382  and  _384
REMARK  153  A    between atoms: _384  and  _385
REMARK  154  A    between atoms: _384  and  _387
REMARK  155  A    between atoms: _387  and  _388
REMARK  156  A    between atoms: _394  and  _396
REMARK  157  A    between atoms: _396  and  _397
REMARK  158  A    between atoms: _396  and  _399
REMARK  159  A    between atoms: _399  and  _400
REMARK  160  A    between atoms: _403  and  _405
REMARK  161  A    between atoms: _405  and  _406
REMARK  162  A    between atoms: _405  and  _408
REMARK  163  A    between atoms: _408  and  _409
REMARK  164  A    between atoms: _409  and  _410
REMARK  165  A    between atoms: _415  and  _417
REMARK  166  A    between atoms: _417  and  _418
REMARK  167  A    between atoms: _417  and  _420
REMARK  168  A    between atoms: _420  and  _421
REMARK  169  A    between atoms: _421  and  _422
REMARK  170  A    between atoms: _422  and  _423
REMARK  171  A    between atoms: _423  and  _424
REMARK  172  A    between atoms: _428  and  _430
REMARK  173  A    between atoms: _430  and  _431
REMARK  174  A    between atoms: _433  and  _435
REMARK  175  A    between atoms: _435  and  _436
REMARK  176  A    between atoms: _435  and  _438
REMARK  177  A    between atoms: _438  and  _439
REMARK  178  A    between atoms: _442  and  _444
REMARK  179  A    between atoms: _444  and  _445
REMARK  180  A    between atoms: _444  and  _447
REMARK  181  A    between atoms: _447  and  _448
REMARK  182  A    between atoms: _451  and  _453
REMARK  183  A    between atoms: _453  and  _454
REMARK  184  A    between atoms: _453  and  _456
REMARK  185  A    between atoms: _456  and  _457
REMARK  186  A    between atoms: _462  and  _464
REMARK  187  A    between atoms: _464  and  _465
REMARK  188  A    between atoms: _464  and  _467
REMARK  189  A    between atoms: _467  and  _468
REMARK  190  A    between atoms: _478  and  _480
REMARK  191  A    between atoms: _480  and  _481
REMARK  192  A    between atoms: _480  and  _483
REMARK  193  A    between atoms: _483  and  _484
REMARK  194  A    between atoms: _484  and  _485
REMARK  195  A    between atoms: _490  and  _492
REMARK  196  A    between atoms: _492  and  _493
REMARK  197  A    between atoms: _492  and  _495
REMARK  198  A    between atoms: _495  and  _496
REMARK  199  A    between atoms: _501  and  _502
REMARK  200  A    between atoms: _504  and  _506
REMARK  201  A    between atoms: _506  and  _507
REMARK  202  A    between atoms: _506  and  _509
REMARK  203  A    between atoms: _509  and  _510
REMARK  204  A    between atoms: _512  and  _514
REMARK  205  A    between atoms: _514  and  _515
REMARK  206  A    between atoms: _514  and  _517
REMARK  207  A    between atoms: _517  and  _518
REMARK  208  A    between atoms: _518  and  _519
REMARK  209  A    between atoms: _519  and  _520
REMARK  210  A    between atoms: _529  and  _531
REMARK  211  A    between atoms: _531  and  _532
REMARK  212  A    between atoms: _531  and  _534
REMARK  213  A    between atoms: _534  and  _535
REMARK  214  A    between atoms: _540  and  _541
REMARK  215  A    between atoms: _543  and  _545
REMARK  216  A    between atoms: _545  and  _546
REMARK  217  A    between atoms: _545  and  _548
REMARK  218  A    between atoms: _548  and  _549
REMARK  219  A    between atoms: _551  and  _553
REMARK  220  A    between atoms: _553  and  _554
REMARK  221  A    between atoms: _553  and  _556
REMARK  222  A    between atoms: _556  and  _557
REMARK  223  A    between atoms: _563  and  _565
REMARK  224  A    between atoms: _565  and  _566
REMARK  225  A    between atoms: _565  and  _568
REMARK  226  A    between atoms: _568  and  _569
REMARK                            x       y       z     vdW  Elec       q    Type
REMARK                         _______ _______ _______ _____ _____    ______ ____
ROOT
ATOM      1  CA  TYR A   3      31.037  12.925  46.287  0.00  0.00    +0.153 C 
ENDROOT
BRANCH   1   3
ATOM      2  C   LYS A   2      29.102  11.984  45.298  0.00  0.00    +0.241 C 
ATOM      3  N   TYR A   3      29.818  12.171  46.394  0.00  0.00    -0.297 N 
ATOM      4  H   TYR A   3      29.508  11.783  47.308  0.00  0.00    +0.150 HD
ATOM      5  O   LYS A   2      29.501  12.416  44.213  0.00  0.00    -0.273 OA
BRANCH   2   6
ATOM      6  CA  LYS A   2      27.768  11.259  45.410  0.00  0.00    +0.149 C 
BRANCH   6   9
ATOM      7  C   MET A   1      26.073  12.943  45.327  0.00  0.00    +0.238 C 
ATOM      8  O   MET A   1      26.131  13.089  46.544  0.00  0.00    -0.274 OA
ATOM      9  N   LYS A   2      26.771  12.030  44.698  0.00  0.00    -0.297 N 
ATOM     10  H   LYS A   2      26.608  11.859  43.685  0.00  0.00    +0.150 HD
BRANCH   7  11
ATOM     11  CA  MET A   1      25.169  13.794  44.488  0.00  0.00    +0.146 C 
BRANCH  11  12
ATOM     12  N   MET A   1      23.774  13.590  44.843  0.00  0.00    -0.238 NA
ATOM     13  H   MET A   1      23.463  13.773  45.818  0.00  0.00    +0.142 HD
ENDBRANCH  11  12
BRANCH  11  14
ATOM     14  CB  MET A   1      25.554  15.241  44.681  0.00  0.00    +0.038 C 
BRANCH  14  15
ATOM     15  CG  MET A   1      27.019  15.528  44.387  0.00  0.00    +0.060 C 
BRANCH  15  16
ATOM     16  SD  MET A   1      27.424  17.239  44.797  0.00  0.00    -0.139 S 
ATOM     17  CE  MET A   1      27.507  17.034  46.562  0.00  0.00    +0.069 C 
ENDBRANCH  15  16
ENDBRANCH  14  15
ENDBRANCH  11  14
ENDBRANCH   7  11
ENDBRANCH   6   9
BRANCH   6  18
ATOM     18  CB  LYS A   2      27.837   9.894  44.806  0.00  0.00    +0.029 C 
BRANCH  18  19
ATOM     19  CG  LYS A   2      28.935   9.082  45.444  0.00  0.00    +0.000 C 
BRANCH  19  20
ATOM     20  CD  LYS A   2      28.769   7.687  44.900  0.00  0.00    -0.024 C 
BRANCH  20  21
ATOM     21  CE  LYS A   2      30.089   7.037  44.561  0.00  0.00    -0.086 C 
BRANCH  21  22
ATOM     22  NZ  LYS A   2      29.840   5.722  44.010  0.00  0.00    +0.380 N 
ATOM     23  HZ1 LYS A   2      29.334   5.144  44.711  0.00  0.00    -0.089 HD
ATOM     24  HZ2 LYS A   2      30.746   5.269  43.774  0.00  0.00    -0.089 HD
ATOM     25  HZ3 LYS A   2      29.262   5.812  43.150  0.00  0.00    -0.089 HD
ENDBRANCH  21  22
ENDBRANCH  20  21
ENDBRANCH  19  20
ENDBRANCH  18  19
ENDBRANCH   6  18
ENDBRANCH   2   6
ENDBRANCH   1   3
BRANCH   1  26
ATOM     26  C   TYR A   3      32.123  12.307  47.126  0.00  0.00    +0.241 C 
ATOM     27  O   TYR A   3      31.848  11.569  48.066  0.00  0.00    -0.273 OA
ATOM     28  N   TRP A   4      33.353  12.588  46.705  0.00  0.00    -0.297 N 
ATOM     29  H   TRP A   4      33.452  13.223  45.888  0.00  0.00    +0.150 HD
BRANCH  28  30
ATOM     30  CA  TRP A   4      34.561  12.070  47.307  0.00  0.00    +0.153 C 
BRANCH  30  31
ATOM     31  C   TRP A   4      35.713  12.976  46.923  0.00  0.00    +0.241 C 
ATOM     32  N   GLY A   5      36.798  12.903  47.704  0.00  0.00    -0.296 N 
ATOM     33  H   GLY A   5      36.804  12.229  48.496  0.00  0.00    +0.150 HD
ATOM     34  O   TRP A   4      35.648  13.715  45.932  0.00  0.00    -0.273 OA
BRANCH  32  35
ATOM     35  CA  GLY A   5      37.968  13.736  47.481  0.00  0.00    +0.163 C 
BRANCH  35  36
ATOM     36  C   GLY A   5      38.954  12.968  46.676  0.00  0.00    +0.229 C 
ATOM     37  O   GLY A   5      38.841  11.751  46.684  0.00  0.00    -0.286 OA
ENDBRANCH  35  36
ENDBRANCH  32  35
ENDBRANCH  30  31
BRANCH  30  38
ATOM     38  CB  TRP A   4      34.865  10.628  46.812  0.00  0.00    +0.057 C 
BRANCH  38  39
ATOM     39  CG  TRP A   4      34.993  10.455  45.294  0.00  0.00    -0.002 A 
ATOM     40  CD1 TRP A   4      36.220  10.434  44.664  0.00  0.00    +0.068 A 
ATOM     41  NE1 TRP A   4      35.944  10.287  43.387  0.00  0.00    -0.352 N 
ATOM     42  CE2 TRP A   4      34.606  10.214  43.189  0.00  0.00    +0.056 A 
ATOM     43  CZ2 TRP A   4      33.875  10.029  42.019  0.00  0.00    +0.017 A 
ATOM     44  CH2 TRP A   4      32.490   9.946  42.090  0.00  0.00    +0.001 A 
ATOM     45  CZ3 TRP A   4      31.834  10.044  43.306  0.00  0.00    +0.000 A 
ATOM     46  CE3 TRP A   4      32.553  10.233  44.474  0.00  0.00    +0.001 A 
ATOM     47  HE1 TRP A   4      36.656  10.234  42.631  0.00  0.00    +0.166 HD
ATOM     48  CD2 TRP A   4      33.939  10.318  44.411  0.00  0.00    +0.013 A 
ENDBRANCH  38  39
ENDBRANCH  30  38
ENDBRANCH  28  30
ENDBRANCH   1  26
BRANCH   1  49
ATOM     49  CB  TYR A   3      30.771  14.391  46.691  0.00  0.00    +0.055 C 
BRANCH  49  50
ATOM     50  CG  TYR A   3      30.487  14.623  48.151  0.00  0.00    -0.020 A 
ATOM     51  CD2 TYR A   3      31.534  14.908  49.022  0.00  0.00    -0.001 A 
ATOM     52  CE2 TYR A   3      31.276  15.080  50.371  0.00  0.00    +0.036 A 
ATOM     53  CZ  TYR A   3      29.974  14.953  50.830  0.00  0.00    +0.134 A 
ATOM     54  CE1 TYR A   3      28.941  14.678  49.958  0.00  0.00    +0.036 A 
ATOM     55  CD1 TYR A   3      29.197  14.512  48.603  0.00  0.00    -0.001 A 
BRANCH  53  56
ATOM     56  OH  TYR A   3      29.702  15.043  52.180  0.00  0.00    -0.506 OA
ATOM     57  HH  TYR A   3      28.730  14.930  52.328  0.00  0.00    +0.292 HD
ENDBRANCH  53  56
ENDBRANCH  49  50
ENDBRANCH   1  49
TORSDOF 23
REMARK  Name = ../refined-set-2016/1rbp/1rbp_pocket.pdb
REMARK  226 active torsions:
REMARK  status: ('A' for Active; 'I' for Inactive)
REMARK    1  A    between atoms: _1  and  _3
REMARK    2  A    between atoms: _3  and  _4
REMARK    3  A    between atoms: _3  and  _6
REMARK    4  A    between atoms: _6  and  _7
REMARK    5  A    between atoms: _13  and  _15
REMARK    6  A    between atoms: _15  and  _16
REMARK    7  A    between atoms: _15  and  _18
REMARK    8  A    between atoms: _18  and  _19
REMARK    9  A    between atoms: _29  and  _31
REMARK   10  A    between atoms: _31  and  _32
REMARK   11  A    between atoms: _36  and  _37
REMARK   12  A    between atoms: _42  and  _44
REMARK   13  A    between atoms: _44  and  _45
REMARK   14  A    between atoms: _44  and  _47
REMARK   15  A    between atoms: _47  and  _48
REMARK   16  A    between atoms: _48  and  _49
REMARK   17  A    between atoms: _52  and  _54
REMARK   18  A    between atoms: _54  and  _55
REMARK   19  A    between atoms: _57  and  _59
REMARK   20  A    between atoms: _59  and  _60
REMARK   21  A    between atoms: _59  and  _62
REMARK   22  A    between atoms: _62  and  _63
REMARK   23  A    between atoms: _66  and  _68
REMARK   24  A    between atoms: _68  and  _69
REMARK   25  A    between atoms: _68  and  _71
REMARK   26  A    between atoms: _71  and  _72
REMARK   27  A    between atoms: _78  and  _80
REMARK   28  A    between atoms: _80  and  _81
REMARK   29  A    between atoms: _80  and  _83
REMARK   30  A    between atoms: _83  and  _84
REMARK   31  A    between atoms: _87  and  _89
REMARK   32  A    between atoms: _89  and  _90
REMARK   33  A    between atoms: _89  and  _92
REMARK   34  A    between atoms: _92  and  _93
REMARK   35  A    between atoms: _93  and  _94
REMARK   36  A    between atoms: _99  and  _101
REMARK   37  A    between atoms: _101  and  _102
REMARK   38  A    between atoms: _101  and  _104
REMARK   39  A    between atoms: _104  and  _105
REMARK   40  A    between atoms: _108  and  _110
REMARK   41  A    between atoms: _110  and  _111
REMARK   42  A    between atoms: _110  and  _113
REMARK   43  A    between atoms: _116  and  _118
REMARK   44  A    between atoms: _118  and  _119
REMARK   45  A    between atoms: _122  and  _124
REMARK   46  A    between atoms: _124  and  _125
REMARK   47  A    between atoms: _124  and  _127
REMARK   48  A    between atoms: _127  and  _128
REMARK   49  A    between atoms: _128  and  _129
REMARK   50  A    between atoms: _132  and  _134
REMARK   51  A    between atoms: _134  and  _135
REMARK   52  A    between atoms: _134  and  _137
REMARK   53  A    between atoms: _137  and  _138
REMARK   54  A    between atoms: _144  and  _146
REMARK   55  A    between atoms: _146  and  _147
REMARK   56  A    between atoms: _146  and  _149
REMARK   57  A    between atoms: _149  and  _150
REMARK   58  A    between atoms: _152  and  _154
REMARK   59  A    between atoms: _154  and  _155
REMARK   60  A    between atoms: _154  and  _157
REMARK   61  A    between atoms: _157  and  _158
REMARK   62  A    between atoms: _160  and  _162
REMARK   63  A    between atoms: _162  and  _163
REMARK   64  A    between atoms: _166  and  _168
REMARK   65  A    between atoms: _168  and  _169
REMARK   66  A    between atoms: _168  and  _171
REMARK   67  A    between atoms: _171  and  _172
REMARK   68  A    between atoms: _175  and  _177
REMARK   69  A    between atoms: _177  and  _178
REMARK   70  A    between atoms: _181  and  _183
REMARK   71  A    between atoms: _183  and  _184
REMARK   72  A    between atoms: _183  and  _186
REMARK   73  A    between atoms: _186  and  _187
REMARK   74  A    between atoms: _187  and  _188
REMARK   75  A    between atoms: _188  and  _189
REMARK   76  A    between atoms: _189  and  _190
REMARK   77  A    between atoms: _194  and  _196
REMARK   78  A    between atoms: _196  and  _197
REMARK   79  A    between atoms: _199  and  _201
REMARK   80  A    between atoms: _201  and  _202
REMARK   81  A    between atoms: _201  and  _204
REMARK   82  A    between atoms: _204  and  _205
REMARK   83  A    between atoms: _205  and  _206
REMARK   84  A    between atoms: _206  and  _207
REMARK   85  A    between atoms: _216  and  _218
REMARK   86  A    between atoms: _218  and  _219
REMARK   87  A    between atoms: _218  and  _221
REMARK   88  A    between atoms: _224  and  _226
REMARK   89  A    between atoms: _226  and  _227
REMARK   90  A    between atoms: _226  and  _229
REMARK   91  A    between atoms: _229  and  _230
REMARK   92  A    between atoms: _230  and  _231
REMARK   93  A    between atoms: _231  and  _232
REMARK   94  A    between atoms: _241  and  _243
REMARK   95  A    between atoms: _243  and  _244
REMARK   96  A    between atoms: _243  and  _246
REMARK   97  A    between atoms: _246  and  _247
REMARK   98  A    between atoms: _250  and  _252
REMARK   99  A    between atoms: _252  and  _253
REMARK  100  A    between atoms: _252  and  _255
REMARK  101  A    between atoms: _255  and  _256
REMARK  102  A    between atoms: _259  and  _261
REMARK  103  A    between atoms: _261  and  _262
REMARK  104  A    between atoms: _261  and  _264
REMARK  105  A    between atoms: _267  and  _269
REMARK  106  A    between atoms: _269  and  _270
REMARK  107  A    between atoms: _273  and  _275
REMARK  108  A    between atoms: _275  and  _276
REMARK  109  A    between atoms: _275  and  _278
REMARK  110  A    between atoms: _278  and  _279
REMARK  111  A    between atoms: _282  and  _284
REMARK  112  A    between atoms: _284  and  _285
REMARK  113  A    between atoms: _284  and  _287
REMARK  114  A    between atoms: _287  and  _288
REMARK  115  A    between atoms: _288  and  _289
REMARK  116  A    between atoms: _291  and  _293
REMARK  117  A    between atoms: _293  and  _294
REMARK  118  A    between atoms: _293  and  _296
REMARK  119  A    between atoms: _299  and  _301
REMARK  120  A    between atoms: _301  and  _302
REMARK  121  A    between atoms: _304  and  _306
REMARK  122  A    between atoms: _306  and  _307
REMARK  123  A    between atoms: _306  and  _309
REMARK  124  A    between atoms: _309  and  _310
REMARK  125  A    between atoms: _313  and  _315
REMARK  126  A    between atoms: _315  and  _316
REMARK  127  A    between atoms: _315  and  _318
REMARK  128  A    between atoms: _318  and  _319
REMARK  129  A    between atoms: _325  and  _327
REMARK  130  A    between atoms: _327  and  _328
REMARK  131  A    between atoms: _327  and  _330
REMARK  132  A    between atoms: _330  and  _331
REMARK  133  A    between atoms: _331  and  _332
REMARK  134  A    between atoms: _334  and  _336
REMARK  135  A    between atoms: _336  and  _337
REMARK  136  A    between atoms: _336  and  _339
REMARK  137  A    between atoms: _339  and  _340
REMARK  138  A    between atoms: _340  and  _341
REMARK  139  A    between atoms: _341  and  _342
REMARK  140  A    between atoms: _342  and  _343
REMARK  141  A    between atoms: _347  and  _349
REMARK  142  A    between atoms: _349  and  _350
REMARK  143  A    between atoms: _349  and  _352
REMARK  144  A    between atoms: _352  and  _353
REMARK  145  A    between atoms: _358  and  _359
REMARK  146  A    between atoms: _361  and  _363
REMARK  147  A    between atoms: _363  and  _364
REMARK  148  A    between atoms: _363  and  _366
REMARK  149  A    between atoms: _366  and  _367
REMARK  150  A    between atoms: _377  and  _379
REMARK  151  A    between atoms: _379  and  _380
REMARK  152  A    between atoms: _382  and  _384
REMARK  153  A    between atoms: _384  and  _385
REMARK  154  A    between atoms: _384  and  _387
REMARK  155  A    between atoms: _387  and  _388
REMARK  156  A    between atoms: _394  and  _396
REMARK  157  A    between atoms: _396  and  _397
REMARK  158  A    between atoms: _396  and  _399
REMARK  159  A    between atoms: _399  and  _400
REMARK  160  A    between atoms: _403  and  _405
REMARK  161  A    between atoms: _405  and  _406
REMARK  162  A    between atoms: _405  and  _408
REMARK  163  A    between atoms: _408  and  _409
REMARK  164  A    between atoms: _409  and  _410
REMARK  165  A    between atoms: _415  and  _417
REMARK  166  A    between atoms: _417  and  _418
REMARK  167  A    between atoms: _417  and  _420
REMARK  168  A    between atoms: _420  and  _421
REMARK  169  A    between atoms: _421  and  _422
REMARK  170  A    between atoms: _422  and  _423
REMARK  171  A    between atoms: _423  and  _424
REMARK  172  A    between atoms: _428  and  _430
REMARK  173  A    between atoms: _430  and  _431
REMARK  174  A    between atoms: _433  and  _435
REMARK  175  A    between atoms: _435  and  _436
REMARK  176  A    between atoms: _435  and  _438
REMARK  177  A    between atoms: _438  and  _439
REMARK  178  A    between atoms: _442  and  _444
REMARK  179  A    between atoms: _444  and  _445
REMARK  180  A    between atoms: _444  and  _447
REMARK  181  A    between atoms: _447  and  _448
REMARK  182  A    between atoms: _451  and  _453
REMARK  183  A    between atoms: _453  and  _454
REMARK  184  A    between atoms: _453  and  _456
REMARK  185  A    between atoms: _456  and  _457
REMARK  186  A    between atoms: _462  and  _464
REMARK  187  A    between atoms: _464  and  _465
REMARK  188  A    between atoms: _464  and  _467
REMARK  189  A    between atoms: _467  and  _468
REMARK  190  A    between atoms: _478  and  _480
REMARK  191  A    between atoms: _480  and  _481
REMARK  192  A    between atoms: _480  and  _483
REMARK  193  A    between atoms: _483  and  _484
REMARK  194  A    between atoms: _484  and  _485
REMARK  195  A    between atoms: _490  and  _492
REMARK  196  A    between atoms: _492  and  _493
REMARK  197  A    between atoms: _492  and  _495
REMARK  198  A    between atoms: _495  and  _496
REMARK  199  A    between atoms: _501  and  _502
REMARK  200  A    between atoms: _504  and  _506
REMARK  201  A    between atoms: _506  and  _507
REMARK  202  A    between atoms: _506  and  _509
REMARK  203  A    between atoms: _509  and  _510
REMARK  204  A    between atoms: _512  and  _514
REMARK  205  A    between atoms: _514  and  _515
REMARK  206  A    between atoms: _514  and  _517
REMARK  207  A    between atoms: _517  and  _518
REMARK  208  A    between atoms: _518  and  _519
REMARK  209  A    between atoms: _519  and  _520
REMARK  210  A    between atoms: _529  and  _531
REMARK  211  A    between atoms: _531  and  _532
REMARK  212  A    between atoms: _531  and  _534
REMARK  213  A    between atoms: _534  and  _535
REMARK  214  A    between atoms: _540  and  _541
REMARK  215  A    between atoms: _543  and  _545
REMARK  216  A    between atoms: _545  and  _546
REMARK  217  A    between atoms: _545  and  _548
REMARK  218  A    between atoms: _548  and  _549
REMARK  219  A    between atoms: _551  and  _553
REMARK  220  A    between atoms: _553  and  _554
REMARK  221  A    between atoms: _553  and  _556
REMARK  222  A    between atoms: _556  and  _557
REMARK  223  A    between atoms: _563  and  _565
REMARK  224  A    between atoms: _565  and  _566
REMARK  225  A    between atoms: _565  and  _568
REMARK  226  A    between atoms: _568  and  _569
REMARK                            x       y       z     vdW  Elec       q    Type
REMARK                         _______ _______ _______ _____ _____    ______ ____
ROOT
ATOM      1  CA  GLN A   3      35.043  13.660  53.008  0.00  0.00    +0.149 C 
ENDROOT
BRANCH   1   2
ATOM      2  C   GLN A   3      34.317  13.128  51.772  0.00  0.00    +0.241 C 
ATOM      3  N   LYS A   4      33.772  11.918  51.967  0.00  0.00    -0.297 N 
ATOM      4  H   LYS A   4      33.961  11.444  52.874  0.00  0.00    +0.150 HD
ATOM      5  O   GLN A   3      34.305  13.758  50.707  0.00  0.00    -0.273 OA
BRANCH   3   6
ATOM      6  CA  LYS A   4      32.935  11.219  51.001  0.00  0.00    +0.149 C 
BRANCH   6   7
ATOM      7  C   LYS A   4      31.499  11.203  51.538  0.00  0.00    +0.241 C 
ATOM      8  O   LYS A   4      31.278  11.093  52.746  0.00  0.00    -0.273 OA
ATOM      9  N   GLY A   5      30.482  11.293  50.688  0.00  0.00    -0.296 N 
ATOM     10  H   GLY A   5      30.683  11.363  49.670  0.00  0.00    +0.150 HD
BRANCH   9  11
ATOM     11  CA  GLY A   5      29.086  11.297  51.135  0.00  0.00    +0.163 C 
BRANCH  11  12
ATOM     12  C   GLY A   5      28.151  11.272  49.940  0.00  0.00    +0.229 C 
ATOM     13  O   GLY A   5      28.566  11.152  48.779  0.00  0.00    -0.286 OA
ENDBRANCH  11  12
ENDBRANCH   9  11
ENDBRANCH   6   7
BRANCH   6  14
ATOM     14  CB  LYS A   4      33.364   9.766  50.817  0.00  0.00    +0.029 C 
BRANCH  14  15
ATOM     15  CG  LYS A   4      34.853   9.558  50.687  0.00  0.00    +0.000 C 
BRANCH  15  16
ATOM     16  CD  LYS A   4      35.164   8.085  50.946  0.00  0.00    -0.024 C 
BRANCH  16  17
ATOM     17  CE  LYS A   4      36.653   7.859  51.260  0.00  0.00    -0.086 C 
BRANCH  17  18
ATOM     18  NZ  LYS A   4      36.913   6.428  51.258  0.00  0.00    +0.380 N 
ATOM     19  HZ1 LYS A   4      36.323   5.969  51.981  0.00  0.00    -0.089 HD
ATOM     20  HZ2 LYS A   4      37.917   6.259  51.469  0.00  0.00    -0.089 HD
ATOM     21  HZ3 LYS A   4      36.684   6.037  50.322  0.00  0.00    -0.089 HD
ENDBRANCH  17  18
ENDBRANCH  16  17
ENDBRANCH  15  16
ENDBRANCH  14  15
ENDBRANCH   6  14
ENDBRANCH   3   6
ENDBRANCH   1   2
BRANCH   1  23
ATOM     22  C   LEU A   2      37.341  13.362  52.242  0.00  0.00    +0.241 C 
ATOM     23  N   GLN A   3      36.378  14.138  52.736  0.00  0.00    -0.297 N 
ATOM     24  H   GLN A   3      36.598  15.135  52.935  0.00  0.00    +0.150 HD
ATOM     25  O   LEU A   2      37.203  12.189  51.906  0.00  0.00    -0.273 OA
BRANCH  22  26
ATOM     26  CA  LEU A   2      38.664  14.063  52.208  0.00  0.00    +0.149 C 
BRANCH  26  29
ATOM     27  C   PHE A   1      40.029  12.731  53.698  0.00  0.00    +0.239 C 
ATOM     28  O   PHE A   1      39.421  13.148  54.694  0.00  0.00    -0.274 OA
ATOM     29  N   LEU A   2      39.697  13.091  52.434  0.00  0.00    -0.297 N 
ATOM     30  H   LEU A   2      40.192  12.662  51.626  0.00  0.00    +0.150 HD
BRANCH  27  31
ATOM     31  CA  PHE A   1      41.198  11.767  53.910  0.00  0.00    +0.149 C 
BRANCH  31  32
ATOM     32  N   PHE A   1      41.637  11.050  52.723  0.00  0.00    -0.238 NA
ATOM     33  H   PHE A   1      42.588  11.244  52.349  0.00  0.00    +0.142 HD
ENDBRANCH  31  32
BRANCH  31  34
ATOM     34  CB  PHE A   1      42.368  12.568  54.527  0.00  0.00    +0.053 C 
BRANCH  34  35
ATOM     35  CG  PHE A   1      43.189  13.533  53.661  0.00  0.00    -0.020 A 
ATOM     36  CD2 PHE A   1      42.759  14.827  53.417  0.00  0.00    -0.004 A 
ATOM     37  CE2 PHE A   1      43.545  15.698  52.675  0.00  0.00    -0.000 A 
ATOM     38  CZ  PHE A   1      44.760  15.292  52.171  0.00  0.00    -0.000 A 
ATOM     39  CE1 PHE A   1      45.180  14.007  52.415  0.00  0.00    -0.000 A 
ATOM     40  CD1 PHE A   1      44.407  13.130  53.151  0.00  0.00    -0.004 A 
ENDBRANCH  34  35
ENDBRANCH  31  34
ENDBRANCH  27  31
ENDBRANCH  26  29
BRANCH  26  41
ATOM     41  CB  LEU A   2      38.885  14.760  50.885  0.00  0.00    +0.029 C 
BRANCH  41  42
ATOM     42  CG  LEU A   2      40.166  15.571  50.787  0.00  0.00    +0.002 C 
ATOM     43  CD2 LEU A   2      40.017  16.817  51.647  0.00  0.00    +0.000 C 
ATOM     44  CD1 LEU A   2      40.463  15.910  49.332  0.00  0.00    +0.000 C 
ENDBRANCH  41  42
ENDBRANCH  26  41
ENDBRANCH  22  26
ENDBRANCH   1  23
BRANCH   1  45
ATOM     45  CB  GLN A   3      34.277  14.819  53.663  0.00  0.00    +0.039 C 
BRANCH  45  46
ATOM     46  CG  GLN A   3      32.995  14.394  54.337  0.00  0.00    +0.087 C 
BRANCH  46  47
ATOM     47  CD  GLN A   3      32.223  15.513  55.001  0.00  0.00    +0.219 C 
ATOM     48  OE1 GLN A   3      32.417  15.826  56.174  0.00  0.00    -0.275 OA
ATOM     49  NE2 GLN A   3      31.308  16.127  54.261  0.00  0.00    -0.329 N 
ATOM     50 HE21 GLN A   3      30.735  16.892  54.671  0.00  0.00    +0.145 HD
ATOM     51 HE22 GLN A   3      31.164  15.843  53.271  0.00  0.00    +0.145 HD
ENDBRANCH  46  47
ENDBRANCH  45  46
ENDBRANCH   1  45
TORSDOF 22
REMARK  Name = ../refined-set-2016/1rbp/1rbp_pocket.pdb
REMARK  226 active torsions:
REMARK  status: ('A' for Active; 'I' for Inactive)
REMARK    1  A    between atoms: _1  and  _3
REMARK    2  A    between atoms: _3  and  _4
REMARK    3  A    between atoms: _3  and  _6
REMARK    4  A    between atoms: _6  and  _7
REMARK    5  A    between atoms: _13  and  _15
REMARK    6  A    between atoms: _15  and  _16
REMARK    7  A    between atoms: _15  and  _18
REMARK    8  A    between atoms: _18  and  _19
REMARK    9  A    between atoms: _29  and  _31
REMARK   10  A    between atoms: _31  and  _32
REMARK   11  A    between atoms: _36  and  _37
REMARK   12  A    between atoms: _42  and  _44
REMARK   13  A    between atoms: _44  and  _45
REMARK   14  A    between atoms: _44  and  _47
REMARK   15  A    between atoms: _47  and  _48
REMARK   16  A    between atoms: _48  and  _49
REMARK   17  A    between atoms: _52  and  _54
REMARK   18  A    between atoms: _54  and  _55
REMARK   19  A    between atoms: _57  and  _59
REMARK   20  A    between atoms: _59  and  _60
REMARK   21  A    between atoms: _59  and  _62
REMARK   22  A    between atoms: _62  and  _63
REMARK   23  A    between atoms: _66  and  _68
REMARK   24  A    between atoms: _68  and  _69
REMARK   25  A    between atoms: _68  and  _71
REMARK   26  A    between atoms: _71  and  _72
REMARK   27  A    between atoms: _78  and  _80
REMARK   28  A    between atoms: _80  and  _81
REMARK   29  A    between atoms: _80  and  _83
REMARK   30  A    between atoms: _83  and  _84
REMARK   31  A    between atoms: _87  and  _89
REMARK   32  A    between atoms: _89  and  _90
REMARK   33  A    between atoms: _89  and  _92
REMARK   34  A    between atoms: _92  and  _93
REMARK   35  A    between atoms: _93  and  _94
REMARK   36  A    between atoms: _99  and  _101
REMARK   37  A    between atoms: _101  and  _102
REMARK   38  A    between atoms: _101  and  _104
REMARK   39  A    between atoms: _104  and  _105
REMARK   40  A    between atoms: _108  and  _110
REMARK   41  A    between atoms: _110  and  _111
REMARK   42  A    between atoms: _110  and  _113
REMARK   43  A    between atoms: _116  and  _118
REMARK   44  A    between atoms: _118  and  _119
REMARK   45  A    between atoms: _122  and  _124
REMARK   46  A    between atoms: _124  and  _125
REMARK   47  A    between atoms: _124  and  _127
REMARK   48  A    between atoms: _127  and  _128
REMARK   49  A    between atoms: _128  and  _129
REMARK   50  A    between atoms: _132  and  _134
REMARK   51  A    between atoms: _134  and  _135
REMARK   52  A    between atoms: _134  and  _137
REMARK   53  A    between atoms: _137  and  _138
REMARK   54  A    between atoms: _144  and  _146
REMARK   55  A    between atoms: _146  and  _147
REMARK   56  A    between atoms: _146  and  _149
REMARK   57  A    between atoms: _149  and  _150
REMARK   58  A    between atoms: _152  and  _154
REMARK   59  A    between atoms: _154  and  _155
REMARK   60  A    between atoms: _154  and  _157
REMARK   61  A    between atoms: _157  and  _158
REMARK   62  A    between atoms: _160  and  _162
REMARK   63  A    between atoms: _162  and  _163
REMARK   64  A    between atoms: _166  and  _168
REMARK   65  A    between atoms: _168  and  _169
REMARK   66  A    between atoms: _168  and  _171
REMARK   67  A    between atoms: _171  and  _172
REMARK   68  A    between atoms: _175  and  _177
REMARK   69  A    between atoms: _177  and  _178
REMARK   70  A    between atoms: _181  and  _183
REMARK   71  A    between atoms: _183  and  _184
REMARK   72  A    between atoms: _183  and  _186
REMARK   73  A    between atoms: _186  and  _187
REMARK   74  A    between atoms: _187  and  _188
REMARK   75  A    between atoms: _188  and  _189
REMARK   76  A    between atoms: _189  and  _190
REMARK   77  A    between atoms: _194  and  _196
REMARK   78  A    between atoms: _196  and  _197
REMARK   79  A    between atoms: _199  and  _201
REMARK   80  A    between atoms: _201  and  _202
REMARK   81  A    between atoms: _201  and  _204
REMARK   82  A    between atoms: _204  and  _205
REMARK   83  A    between atoms: _205  and  _206
REMARK   84  A    between atoms: _206  and  _207
REMARK   85  A    between atoms: _216  and  _218
REMARK   86  A    between atoms: _218  and  _219
REMARK   87  A    between atoms: _218  and  _221
REMARK   88  A    between atoms: _224  and  _226
REMARK   89  A    between atoms: _226  and  _227
REMARK   90  A    between atoms: _226  and  _229
REMARK   91  A    between atoms: _229  and  _230
REMARK   92  A    between atoms: _230  and  _231
REMARK   93  A    between atoms: _231  and  _232
REMARK   94  A    between atoms: _241  and  _243
REMARK   95  A    between atoms: _243  and  _244
REMARK   96  A    between atoms: _243  and  _246
REMARK   97  A    between atoms: _246  and  _247
REMARK   98  A    between atoms: _250  and  _252
REMARK   99  A    between atoms: _252  and  _253
REMARK  100  A    between atoms: _252  and  _255
REMARK  101  A    between atoms: _255  and  _256
REMARK  102  A    between atoms: _259  and  _261
REMARK  103  A    between atoms: _261  and  _262
REMARK  104  A    between atoms: _261  and  _264
REMARK  105  A    between atoms: _267  and  _269
REMARK  106  A    between atoms: _269  and  _270
REMARK  107  A    between atoms: _273  and  _275
REMARK  108  A    between atoms: _275  and  _276
REMARK  109  A    between atoms: _275  and  _278
REMARK  110  A    between atoms: _278  and  _279
REMARK  111  A    between atoms: _282  and  _284
REMARK  112  A    between atoms: _284  and  _285
REMARK  113  A    between atoms: _284  and  _287
REMARK  114  A    between atoms: _287  and  _288
REMARK  115  A    between atoms: _288  and  _289
REMARK  116  A    between atoms: _291  and  _293
REMARK  117  A    between atoms: _293  and  _294
REMARK  118  A    between atoms: _293  and  _296
REMARK  119  A    between atoms: _299  and  _301
REMARK  120  A    between atoms: _301  and  _302
REMARK  121  A    between atoms: _304  and  _306
REMARK  122  A    between atoms: _306  and  _307
REMARK  123  A    between atoms: _306  and  _309
REMARK  124  A    between atoms: _309  and  _310
REMARK  125  A    between atoms: _313  and  _315
REMARK  126  A    between atoms: _315  and  _316
REMARK  127  A    between atoms: _315  and  _318
REMARK  128  A    between atoms: _318  and  _319
REMARK  129  A    between atoms: _325  and  _327
REMARK  130  A    between atoms: _327  and  _328
REMARK  131  A    between atoms: _327  and  _330
REMARK  132  A    between atoms: _330  and  _331
REMARK  133  A    between atoms: _331  and  _332
REMARK  134  A    between atoms: _334  and  _336
REMARK  135  A    between atoms: _336  and  _337
REMARK  136  A    between atoms: _336  and  _339
REMARK  137  A    between atoms: _339  and  _340
REMARK  138  A    between atoms: _340  and  _341
REMARK  139  A    between atoms: _341  and  _342
REMARK  140  A    between atoms: _342  and  _343
REMARK  141  A    between atoms: _347  and  _349
REMARK  142  A    between atoms: _349  and  _350
REMARK  143  A    between atoms: _349  and  _352
REMARK  144  A    between atoms: _352  and  _353
REMARK  145  A    between atoms: _358  and  _359
REMARK  146  A    between atoms: _361  and  _363
REMARK  147  A    between atoms: _363  and  _364
REMARK  148  A    between atoms: _363  and  _366
REMARK  149  A    between atoms: _366  and  _367
REMARK  150  A    between atoms: _377  and  _379
REMARK  151  A    between atoms: _379  and  _380
REMARK  152  A    between atoms: _382  and  _384
REMARK  153  A    between atoms: _384  and  _385
REMARK  154  A    between atoms: _384  and  _387
REMARK  155  A    between atoms: _387  and  _388
REMARK  156  A    between atoms: _394  and  _396
REMARK  157  A    between atoms: _396  and  _397
REMARK  158  A    between atoms: _396  and  _399
REMARK  159  A    between atoms: _399  and  _400
REMARK  160  A    between atoms: _403  and  _405
REMARK  161  A    between atoms: _405  and  _406
REMARK  162  A    between atoms: _405  and  _408
REMARK  163  A    between atoms: _408  and  _409
REMARK  164  A    between atoms: _409  and  _410
REMARK  165  A    between atoms: _415  and  _417
REMARK  166  A    between atoms: _417  and  _418
REMARK  167  A    between atoms: _417  and  _420
REMARK  168  A    between atoms: _420  and  _421
REMARK  169  A    between atoms: _421  and  _422
REMARK  170  A    between atoms: _422  and  _423
REMARK  171  A    between atoms: _423  and  _424
REMARK  172  A    between atoms: _428  and  _430
REMARK  173  A    between atoms: _430  and  _431
REMARK  174  A    between atoms: _433  and  _435
REMARK  175  A    between atoms: _435  and  _436
REMARK  176  A    between atoms: _435  and  _438
REMARK  177  A    between atoms: _438  and  _439
REMARK  178  A    between atoms: _442  and  _444
REMARK  179  A    between atoms: _444  and  _445
REMARK  180  A    between atoms: _444  and  _447
REMARK  181  A    between atoms: _447  and  _448
REMARK  182  A    between atoms: _451  and  _453
REMARK  183  A    between atoms: _453  and  _454
REMARK  184  A    between atoms: _453  and  _456
REMARK  185  A    between atoms: _456  and  _457
REMARK  186  A    between atoms: _462  and  _464
REMARK  187  A    between atoms: _464  and  _465
REMARK  188  A    between atoms: _464  and  _467
REMARK  189  A    between atoms: _467  and  _468
REMARK  190  A    between atoms: _478  and  _480
REMARK  191  A    between atoms: _480  and  _481
REMARK  192  A    between atoms: _480  and  _483
REMARK  193  A    between atoms: _483  and  _484
REMARK  194  A    between atoms: _484  and  _485
REMARK  195  A    between atoms: _490  and  _492
REMARK  196  A    between atoms: _492  and  _493
REMARK  197  A    between atoms: _492  and  _495
REMARK  198  A    between atoms: _495  and  _496
REMARK  199  A    between atoms: _501  and  _502
REMARK  200  A    between atoms: _504  and  _506
REMARK  201  A    between atoms: _506  and  _507
REMARK  202  A    between atoms: _506  and  _509
REMARK  203  A    between atoms: _509  and  _510
REMARK  204  A    between atoms: _512  and  _514
REMARK  205  A    between atoms: _514  and  _515
REMARK  206  A    between atoms: _514  and  _517
REMARK  207  A    between atoms: _517  and  _518
REMARK  208  A    between atoms: _518  and  _519
REMARK  209  A    between atoms: _519  and  _520
REMARK  210  A    between atoms: _529  and  _531
REMARK  211  A    between atoms: _531  and  _532
REMARK  212  A    between atoms: _531  and  _534
REMARK  213  A    between atoms: _534  and  _535
REMARK  214  A    between atoms: _540  and  _541
REMARK  215  A    between atoms: _543  and  _545
REMARK  216  A    between atoms: _545  and  _546
REMARK  217  A    between atoms: _545  and  _548
REMARK  218  A    between atoms: _548  and  _549
REMARK  219  A    between atoms: _551  and  _553
REMARK  220  A    between atoms: _553  and  _554
REMARK  221  A    between atoms: _553  and  _556
REMARK  222  A    between atoms: _556  and  _557
REMARK  223  A    between atoms: _563  and  _565
REMARK  224  A    between atoms: _565  and  _566
REMARK  225  A    between atoms: _565  and  _568
REMARK  226  A    between atoms: _568  and  _569
REMARK                            x       y       z     vdW  Elec       q    Type
REMARK                         _______ _______ _______ _____ _____    ______ ____
ROOT
ATOM      1  CA  HIS A   3      21.693  18.871  45.118  0.00  0.00    +0.155 C 
ENDROOT
BRANCH   1   4
ATOM      2  C   ASP A   2      21.417  17.418  47.031  0.00  0.00    +0.241 C 
ATOM      3  O   ASP A   2      22.108  18.134  47.744  0.00  0.00    -0.273 OA
ATOM      4  N   HIS A   3      21.201  17.688  45.750  0.00  0.00    -0.297 N 
ATOM      5  H   HIS A   3      20.651  17.011  45.183  0.00  0.00    +0.150 HD
BRANCH   2   6
ATOM      6  CA  ASP A   2      20.756  16.171  47.609  0.00  0.00    +0.160 C 
BRANCH   6   8
ATOM      7  C   ASP A   1      22.739  15.025  48.340  0.00  0.00    +0.239 C 
ATOM      8  N   ASP A   2      21.598  15.617  48.654  0.00  0.00    -0.297 N 
ATOM      9  H   ASP A   2      21.304  15.685  49.649  0.00  0.00    +0.150 HD
ATOM     10  O   ASP A   1      22.984  14.712  47.185  0.00  0.00    -0.274 OA
BRANCH   7  11
ATOM     11  CA  ASP A   1      23.722  14.710  49.451  0.00  0.00    +0.156 C 
BRANCH  11  12
ATOM     12  N   ASP A   1      24.623  13.599  49.088  0.00  0.00    -0.238 NA
ATOM     13  H   ASP A   1      25.140  13.671  48.188  0.00  0.00    +0.142 HD
ENDBRANCH  11  12
BRANCH  11  14
ATOM     14  CB  ASP A   1      24.464  16.037  49.718  0.00  0.00    +0.140 C 
BRANCH  14  15
ATOM     15  CG  ASP A   1      25.419  16.134  50.906  0.00  0.00    +0.367 C 
ATOM     16  OD2 ASP A   1      25.273  15.422  51.887  0.00  0.00    -0.246 OA
ATOM     17  OD1 ASP A   1      26.325  16.953  50.841  0.00  0.00    -0.246 OA
ENDBRANCH  14  15
ENDBRANCH  11  14
ENDBRANCH   7  11
ENDBRANCH   6   8
BRANCH   6  18
ATOM     18  CB  ASP A   2      19.413  16.649  48.097  0.00  0.00    +0.143 C 
BRANCH  18  19
ATOM     19  CG  ASP A   2      18.484  15.588  48.640  0.00  0.00    +0.367 C 
ATOM     20  OD2 ASP A   2      17.456  15.990  49.202  0.00  0.00    -0.246 OA
ATOM     21  OD1 ASP A   2      18.765  14.387  48.509  0.00  0.00    -0.246 OA
ENDBRANCH  18  19
ENDBRANCH   6  18
ENDBRANCH   2   6
ENDBRANCH   1   4
BRANCH   1  22
ATOM     22  C   HIS A   3      20.595  19.497  44.275  0.00  0.00    +0.241 C 
ATOM     23  N   TRP A   4      20.016  20.582  44.796  0.00  0.00    -0.298 N 
ATOM     24  H   TRP A   4      20.357  20.935  45.713  0.00  0.00    +0.150 HD
ATOM     25  O   HIS A   3      20.310  19.069  43.167  0.00  0.00    -0.273 OA
BRANCH  23  26
ATOM     26  CA  TRP A   4      18.926  21.295  44.137  0.00  0.00    +0.141 C 
BRANCH  26  27
ATOM     27  C   TRP A   4      19.409  22.607  43.565  0.00  0.00    +0.227 C 
ATOM     28  O   TRP A   4      20.106  23.343  44.242  0.00  0.00    -0.286 OA
ENDBRANCH  26  27
BRANCH  26  29
ATOM     29  CB  TRP A   4      17.745  21.633  45.092  0.00  0.00    +0.056 C 
BRANCH  29  30
ATOM     30  CG  TRP A   4      17.076  20.444  45.764  0.00  0.00    -0.002 A 
ATOM     31  CD2 TRP A   4      16.066  20.486  46.701  0.00  0.00    +0.013 A 
ATOM     32  CE3 TRP A   4      15.233  21.425  47.302  0.00  0.00    +0.001 A 
ATOM     33  CZ3 TRP A   4      14.206  20.973  48.124  0.00  0.00    +0.000 A 
ATOM     34  CH2 TRP A   4      14.007  19.612  48.340  0.00  0.00    +0.001 A 
ATOM     35  CZ2 TRP A   4      14.832  18.670  47.750  0.00  0.00    +0.017 A 
ATOM     36  CE2 TRP A   4      15.858  19.121  46.936  0.00  0.00    +0.056 A 
ATOM     37  NE1 TRP A   4      16.691  18.381  46.176  0.00  0.00    -0.352 N 
ATOM     38  HE1 TRP A   4      16.723  17.342  46.164  0.00  0.00    +0.166 HD
ATOM     39  CD1 TRP A   4      17.446  19.156  45.463  0.00  0.00    +0.068 A 
ENDBRANCH  29  30
ENDBRANCH  26  29
ENDBRANCH  23  26
ENDBRANCH   1  22
BRANCH   1  40
ATOM     40  CB  HIS A   3      22.898  18.518  44.257  0.00  0.00    +0.076 C 
BRANCH  40  41
ATOM     41  CG  HIS A   3      23.757  19.716  43.832  0.00  0.00    +0.082 A 
ATOM     42  ND1 HIS A   3      24.926  20.097  44.362  0.00  0.00    -0.227 NA
ATOM     43  CE1 HIS A   3      25.379  21.103  43.660  0.00  0.00    +0.199 A 
ATOM     44  NE2 HIS A   3      24.506  21.370  42.705  0.00  0.00    -0.221 NA
ATOM     45  CD2 HIS A   3      23.488  20.552  42.768  0.00  0.00    +0.115 A 
ENDBRANCH  40  41
ENDBRANCH   1  40
TORSDOF 16
REMARK  Name = ../refined-set-2016/1rbp/1rbp_pocket.pdb
REMARK  226 active torsions:
REMARK  status: ('A' for Active; 'I' for Inactive)
REMARK    1  A    between atoms: _1  and  _3
REMARK    2  A    between atoms: _3  and  _4
REMARK    3  A    between atoms: _3  and  _6
REMARK    4  A    between atoms: _6  and  _7
REMARK    5  A    between atoms: _13  and  _15
REMARK    6  A    between atoms: _15  and  _16
REMARK    7  A    between atoms: _15  and  _18
REMARK    8  A    between atoms: _18  and  _19
REMARK    9  A    between atoms: _29  and  _31
REMARK   10  A    between atoms: _31  and  _32
REMARK   11  A    between atoms: _36  and  _37
REMARK   12  A    between atoms: _42  and  _44
REMARK   13  A    between atoms: _44  and  _45
REMARK   14  A    between atoms: _44  and  _47
REMARK   15  A    between atoms: _47  and  _48
REMARK   16  A    between atoms: _48  and  _49
REMARK   17  A    between atoms: _52  and  _54
REMARK   18  A    between atoms: _54  and  _55
REMARK   19  A    between atoms: _57  and  _59
REMARK   20  A    between atoms: _59  and  _60
REMARK   21  A    between atoms: _59  and  _62
REMARK   22  A    between atoms: _62  and  _63
REMARK   23  A    between atoms: _66  and  _68
REMARK   24  A    between atoms: _68  and  _69
REMARK   25  A    between atoms: _68  and  _71
REMARK   26  A    between atoms: _71  and  _72
REMARK   27  A    between atoms: _78  and  _80
REMARK   28  A    between atoms: _80  and  _81
REMARK   29  A    between atoms: _80  and  _83
REMARK   30  A    between atoms: _83  and  _84
REMARK   31  A    between atoms: _87  and  _89
REMARK   32  A    between atoms: _89  and  _90
REMARK   33  A    between atoms: _89  and  _92
REMARK   34  A    between atoms: _92  and  _93
REMARK   35  A    between atoms: _93  and  _94
REMARK   36  A    between atoms: _99  and  _101
REMARK   37  A    between atoms: _101  and  _102
REMARK   38  A    between atoms: _101  and  _104
REMARK   39  A    between atoms: _104  and  _105
REMARK   40  A    between atoms: _108  and  _110
REMARK   41  A    between atoms: _110  and  _111
REMARK   42  A    between atoms: _110  and  _113
REMARK   43  A    between atoms: _116  and  _118
REMARK   44  A    between atoms: _118  and  _119
REMARK   45  A    between atoms: _122  and  _124
REMARK   46  A    between atoms: _124  and  _125
REMARK   47  A    between atoms: _124  and  _127
REMARK   48  A    between atoms: _127  and  _128
REMARK   49  A    between atoms: _128  and  _129
REMARK   50  A    between atoms: _132  and  _134
REMARK   51  A    between atoms: _134  and  _135
REMARK   52  A    between atoms: _134  and  _137
REMARK   53  A    between atoms: _137  and  _138
REMARK   54  A    between atoms: _144  and  _146
REMARK   55  A    between atoms: _146  and  _147
REMARK   56  A    between atoms: _146  and  _149
REMARK   57  A    between atoms: _149  and  _150
REMARK   58  A    between atoms: _152  and  _154
REMARK   59  A    between atoms: _154  and  _155
REMARK   60  A    between atoms: _154  and  _157
REMARK   61  A    between atoms: _157  and  _158
REMARK   62  A    between atoms: _160  and  _162
REMARK   63  A    between atoms: _162  and  _163
REMARK   64  A    between atoms: _166  and  _168
REMARK   65  A    between atoms: _168  and  _169
REMARK   66  A    between atoms: _168  and  _171
REMARK   67  A    between atoms: _171  and  _172
REMARK   68  A    between atoms: _175  and  _177
REMARK   69  A    between atoms: _177  and  _178
REMARK   70  A    between atoms: _181  and  _183
REMARK   71  A    between atoms: _183  and  _184
REMARK   72  A    between atoms: _183  and  _186
REMARK   73  A    between atoms: _186  and  _187
REMARK   74  A    between atoms: _187  and  _188
REMARK   75  A    between atoms: _188  and  _189
REMARK   76  A    between atoms: _189  and  _190
REMARK   77  A    between atoms: _194  and  _196
REMARK   78  A    between atoms: _196  and  _197
REMARK   79  A    between atoms: _199  and  _201
REMARK   80  A    between atoms: _201  and  _202
REMARK   81  A    between atoms: _201  and  _204
REMARK   82  A    between atoms: _204  and  _205
REMARK   83  A    between atoms: _205  and  _206
REMARK   84  A    between atoms: _206  and  _207
REMARK   85  A    between atoms: _216  and  _218
REMARK   86  A    between atoms: _218  and  _219
REMARK   87  A    between atoms: _218  and  _221
REMARK   88  A    between atoms: _224  and  _226
REMARK   89  A    between atoms: _226  and  _227
REMARK   90  A    between atoms: _226  and  _229
REMARK   91  A    between atoms: _229  and  _230
REMARK   92  A    between atoms: _230  and  _231
REMARK   93  A    between atoms: _231  and  _232
REMARK   94  A    between atoms: _241  and  _243
REMARK   95  A    between atoms: _243  and  _244
REMARK   96  A    between atoms: _243  and  _246
REMARK   97  A    between atoms: _246  and  _247
REMARK   98  A    between atoms: _250  and  _252
REMARK   99  A    between atoms: _252  and  _253
REMARK  100  A    between atoms: _252  and  _255
REMARK  101  A    between atoms: _255  and  _256
REMARK  102  A    between atoms: _259  and  _261
REMARK  103  A    between atoms: _261  and  _262
REMARK  104  A    between atoms: _261  and  _264
REMARK  105  A    between atoms: _267  and  _269
REMARK  106  A    between atoms: _269  and  _270
REMARK  107  A    between atoms: _273  and  _275
REMARK  108  A    between atoms: _275  and  _276
REMARK  109  A    between atoms: _275  and  _278
REMARK  110  A    between atoms: _278  and  _279
REMARK  111  A    between atoms: _282  and  _284
REMARK  112  A    between atoms: _284  and  _285
REMARK  113  A    between atoms: _284  and  _287
REMARK  114  A    between atoms: _287  and  _288
REMARK  115  A    between atoms: _288  and  _289
REMARK  116  A    between atoms: _291  and  _293
REMARK  117  A    between atoms: _293  and  _294
REMARK  118  A    between atoms: _293  and  _296
REMARK  119  A    between atoms: _299  and  _301
REMARK  120  A    between atoms: _301  and  _302
REMARK  121  A    between atoms: _304  and  _306
REMARK  122  A    between atoms: _306  and  _307
REMARK  123  A    between atoms: _306  and  _309
REMARK  124  A    between atoms: _309  and  _310
REMARK  125  A    between atoms: _313  and  _315
REMARK  126  A    between atoms: _315  and  _316
REMARK  127  A    between atoms: _315  and  _318
REMARK  128  A    between atoms: _318  and  _319
REMARK  129  A    between atoms: _325  and  _327
REMARK  130  A    between atoms: _327  and  _328
REMARK  131  A    between atoms: _327  and  _330
REMARK  132  A    between atoms: _330  and  _331
REMARK  133  A    between atoms: _331  and  _332
REMARK  134  A    between atoms: _334  and  _336
REMARK  135  A    between atoms: _336  and  _337
REMARK  136  A    between atoms: _336  and  _339
REMARK  137  A    between atoms: _339  and  _340
REMARK  138  A    between atoms: _340  and  _341
REMARK  139  A    between atoms: _341  and  _342
REMARK  140  A    between atoms: _342  and  _343
REMARK  141  A    between atoms: _347  and  _349
REMARK  142  A    between atoms: _349  and  _350
REMARK  143  A    between atoms: _349  and  _352
REMARK  144  A    between atoms: _352  and  _353
REMARK  145  A    between atoms: _358  and  _359
REMARK  146  A    between atoms: _361  and  _363
REMARK  147  A    between atoms: _363  and  _364
REMARK  148  A    between atoms: _363  and  _366
REMARK  149  A    between atoms: _366  and  _367
REMARK  150  A    between atoms: _377  and  _379
REMARK  151  A    between atoms: _379  and  _380
REMARK  152  A    between atoms: _382  and  _384
REMARK  153  A    between atoms: _384  and  _385
REMARK  154  A    between atoms: _384  and  _387
REMARK  155  A    between atoms: _387  and  _388
REMARK  156  A    between atoms: _394  and  _396
REMARK  157  A    between atoms: _396  and  _397
REMARK  158  A    between atoms: _396  and  _399
REMARK  159  A    between atoms: _399  and  _400
REMARK  160  A    between atoms: _403  and  _405
REMARK  161  A    between atoms: _405  and  _406
REMARK  162  A    between atoms: _405  and  _408
REMARK  163  A    between atoms: _408  and  _409
REMARK  164  A    between atoms: _409  and  _410
REMARK  165  A    between atoms: _415  and  _417
REMARK  166  A    between atoms: _417  and  _418
REMARK  167  A    between atoms: _417  and  _420
REMARK  168  A    between atoms: _420  and  _421
REMARK  169  A    between atoms: _421  and  _422
REMARK  170  A    between atoms: _422  and  _423
REMARK  171  A    between atoms: _423  and  _424
REMARK  172  A    between atoms: _428  and  _430
REMARK  173  A    between atoms: _430  and  _431
REMARK  174  A    between atoms: _433  and  _435
REMARK  175  A    between atoms: _435  and  _436
REMARK  176  A    between atoms: _435  and  _438
REMARK  177  A    between atoms: _438  and  _439
REMARK  178  A    between atoms: _442  and  _444
REMARK  179  A    between atoms: _444  and  _445
REMARK  180  A    between atoms: _444  and  _447
REMARK  181  A    between atoms: _447  and  _448
REMARK  182  A    between atoms: _451  and  _453
REMARK  183  A    between atoms: _453  and  _454
REMARK  184  A    between atoms: _453  and  _456
REMARK  185  A    between atoms: _456  and  _457
REMARK  186  A    between atoms: _462  and  _464
REMARK  187  A    between atoms: _464  and  _465
REMARK  188  A    between atoms: _464  and  _467
REMARK  189  A    between atoms: _467  and  _468
REMARK  190  A    between atoms: _478  and  _480
REMARK  191  A    between atoms: _480  and  _481
REMARK  192  A    between atoms: _480  and  _483
REMARK  193  A    between atoms: _483  and  _484
REMARK  194  A    between atoms: _484  and  _485
REMARK  195  A    between atoms: _490  and  _492
REMARK  196  A    between atoms: _492  and  _493
REMARK  197  A    between atoms: _492  and  _495
REMARK  198  A    between atoms: _495  and  _496
REMARK  199  A    between atoms: _501  and  _502
REMARK  200  A    between atoms: _504  and  _506
REMARK  201  A    between atoms: _506  and  _507
REMARK  202  A    between atoms: _506  and  _509
REMARK  203  A    between atoms: _509  and  _510
REMARK  204  A    between atoms: _512  and  _514
REMARK  205  A    between atoms: _514  and  _515
REMARK  206  A    between atoms: _514  and  _517
REMARK  207  A    between atoms: _517  and  _518
REMARK  208  A    between atoms: _518  and  _519
REMARK  209  A    between atoms: _519  and  _520
REMARK  210  A    between atoms: _529  and  _531
REMARK  211  A    between atoms: _531  and  _532
REMARK  212  A    between atoms: _531  and  _534
REMARK  213  A    between atoms: _534  and  _535
REMARK  214  A    between atoms: _540  and  _541
REMARK  215  A    between atoms: _543  and  _545
REMARK  216  A    between atoms: _545  and  _546
REMARK  217  A    between atoms: _545  and  _548
REMARK  218  A    between atoms: _548  and  _549
REMARK  219  A    between atoms: _551  and  _553
REMARK  220  A    between atoms: _553  and  _554
REMARK  221  A    between atoms: _553  and  _556
REMARK  222  A    between atoms: _556  and  _557
REMARK  223  A    between atoms: _563  and  _565
REMARK  224  A    between atoms: _565  and  _566
REMARK  225  A    between atoms: _565  and  _568
REMARK  226  A    between atoms: _568  and  _569
REMARK                            x       y       z     vdW  Elec       q    Type
REMARK                         _______ _______ _______ _____ _____    ______ ____
ROOT
ATOM      1  CA  TYR A   2      20.644  24.120  48.285  0.00  0.00    +0.153 C 
ENDROOT
BRANCH   1   4
ATOM      2  C   GLN A   1      21.627  25.588  46.540  0.00  0.00    +0.238 C 
ATOM      3  O   GLN A   1      21.760  26.515  47.329  0.00  0.00    -0.274 OA
ATOM      4  N   TYR A   2      21.081  24.426  46.933  0.00  0.00    -0.297 N 
ATOM      5  H   TYR A   2      20.961  23.686  46.212  0.00  0.00    +0.150 HD
BRANCH   2   6
ATOM      6  CA  GLN A   1      22.127  25.675  45.080  0.00  0.00    +0.145 C 
BRANCH   6   7
ATOM      7  N   GLN A   1      22.248  27.056  44.718  0.00  0.00    -0.238 NA
ATOM      8  H   GLN A   1      23.042  27.606  45.103  0.00  0.00    +0.142 HD
ENDBRANCH   6   7
BRANCH   6   9
ATOM      9  CB  GLN A   1      23.527  25.055  44.837  0.00  0.00    +0.036 C 
BRANCH   9  10
ATOM     10  CG  GLN A   1      23.814  23.629  45.325  0.00  0.00    +0.087 C 
BRANCH  10  11
ATOM     11  CD  GLN A   1      24.066  23.503  46.834  0.00  0.00    +0.219 C 
ATOM     12  OE1 GLN A   1      24.399  24.476  47.500  0.00  0.00    -0.275 OA
ATOM     13  NE2 GLN A   1      23.922  22.365  47.475  0.00  0.00    -0.329 N 
ATOM     14 HE21 GLN A   1      24.089  22.321  48.500  0.00  0.00    +0.145 HD
ATOM     15 HE22 GLN A   1      23.641  21.508  46.957  0.00  0.00    +0.145 HD
ENDBRANCH  10  11
ENDBRANCH   9  10
ENDBRANCH   6   9
ENDBRANCH   2   6
ENDBRANCH   1   4
BRANCH   1  16
ATOM     16  C   TYR A   2      20.654  22.599  48.464  0.00  0.00    +0.241 C 
ATOM     17  N   SER A   3      21.002  22.248  49.694  0.00  0.00    -0.296 N 
ATOM     18  H   SER A   3      21.293  22.983  50.370  0.00  0.00    +0.150 HD
ATOM     19  O   TYR A   2      20.358  21.782  47.583  0.00  0.00    -0.273 OA
BRANCH  17  20
ATOM     20  CA  SER A   3      20.985  20.863  50.117  0.00  0.00    +0.166 C 
BRANCH  20  21
ATOM     21  C   SER A   3      20.510  20.843  51.565  0.00  0.00    +0.229 C 
ATOM     22  O   SER A   3      21.024  21.566  52.411  0.00  0.00    -0.286 OA
ENDBRANCH  20  21
BRANCH  20  23
ATOM     23  CB  SER A   3      22.390  20.326  49.979  0.00  0.00    +0.165 C 
BRANCH  23  24
ATOM     24  OG  SER A   3      22.548  18.968  50.338  0.00  0.00    -0.380 OA
ATOM     25  H   SER A   3      21.971  18.406  49.762  0.00  0.00    +0.211 HD
ENDBRANCH  23  24
ENDBRANCH  20  23
ENDBRANCH  17  20
ENDBRANCH   1  16
BRANCH   1  26
ATOM     26  CB  TYR A   2      19.233  24.690  48.505  0.00  0.00    +0.055 C 
BRANCH  26  27
ATOM     27  CG  TYR A   2      18.575  24.367  49.845  0.00  0.00    -0.020 A 
ATOM     28  CD2 TYR A   2      18.775  25.188  50.927  0.00  0.00    -0.001 A 
ATOM     29  CE2 TYR A   2      18.125  24.912  52.098  0.00  0.00    +0.036 A 
ATOM     30  CZ  TYR A   2      17.283  23.835  52.182  0.00  0.00    +0.134 A 
ATOM     31  CE1 TYR A   2      17.067  22.989  51.132  0.00  0.00    +0.036 A 
ATOM     32  CD1 TYR A   2      17.723  23.273  49.948  0.00  0.00    -0.001 A 
BRANCH  30  33
ATOM     33  OH  TYR A   2      16.610  23.607  53.338  0.00  0.00    -0.506 OA
ATOM     34  HH  TYR A   2      16.034  24.386  53.543  0.00  0.00    +0.292 HD
ENDBRANCH  30  33
ENDBRANCH  26  27
ENDBRANCH   1  26
TORSDOF 14
REMARK  Name = ../refined-set-2016/1rbp/1rbp_pocket.pdb
REMARK  226 active torsions:
REMARK  status: ('A' for Active; 'I' for Inactive)
REMARK    1  A    between atoms: _1  and  _3
REMARK    2  A    between atoms: _3  and  _4
REMARK    3  A    between atoms: _3  and  _6
REMARK    4  A    between atoms: _6  and  _7
REMARK    5  A    between atoms: _13  and  _15
REMARK    6  A    between atoms: _15  and  _16
REMARK    7  A    between atoms: _15  and  _18
REMARK    8  A    between atoms: _18  and  _19
REMARK    9  A    between atoms: _29  and  _31
REMARK   10  A    between atoms: _31  and  _32
REMARK   11  A    between atoms: _36  and  _37
REMARK   12  A    between atoms: _42  and  _44
REMARK   13  A    between atoms: _44  and  _45
REMARK   14  A    between atoms: _44  and  _47
REMARK   15  A    between atoms: _47  and  _48
REMARK   16  A    between atoms: _48  and  _49
REMARK   17  A    between atoms: _52  and  _54
REMARK   18  A    between atoms: _54  and  _55
REMARK   19  A    between atoms: _57  and  _59
REMARK   20  A    between atoms: _59  and  _60
REMARK   21  A    between atoms: _59  and  _62
REMARK   22  A    between atoms: _62  and  _63
REMARK   23  A    between atoms: _66  and  _68
REMARK   24  A    between atoms: _68  and  _69
REMARK   25  A    between atoms: _68  and  _71
REMARK   26  A    between atoms: _71  and  _72
REMARK   27  A    between atoms: _78  and  _80
REMARK   28  A    between atoms: _80  and  _81
REMARK   29  A    between atoms: _80  and  _83
REMARK   30  A    between atoms: _83  and  _84
REMARK   31  A    between atoms: _87  and  _89
REMARK   32  A    between atoms: _89  and  _90
REMARK   33  A    between atoms: _89  and  _92
REMARK   34  A    between atoms: _92  and  _93
REMARK   35  A    between atoms: _93  and  _94
REMARK   36  A    between atoms: _99  and  _101
REMARK   37  A    between atoms: _101  and  _102
REMARK   38  A    between atoms: _101  and  _104
REMARK   39  A    between atoms: _104  and  _105
REMARK   40  A    between atoms: _108  and  _110
REMARK   41  A    between atoms: _110  and  _111
REMARK   42  A    between atoms: _110  and  _113
REMARK   43  A    between atoms: _116  and  _118
REMARK   44  A    between atoms: _118  and  _119
REMARK   45  A    between atoms: _122  and  _124
REMARK   46  A    between atoms: _124  and  _125
REMARK   47  A    between atoms: _124  and  _127
REMARK   48  A    between atoms: _127  and  _128
REMARK   49  A    between atoms: _128  and  _129
REMARK   50  A    between atoms: _132  and  _134
REMARK   51  A    between atoms: _134  and  _135
REMARK   52  A    between atoms: _134  and  _137
REMARK   53  A    between atoms: _137  and  _138
REMARK   54  A    between atoms: _144  and  _146
REMARK   55  A    between atoms: _146  and  _147
REMARK   56  A    between atoms: _146  and  _149
REMARK   57  A    between atoms: _149  and  _150
REMARK   58  A    between atoms: _152  and  _154
REMARK   59  A    between atoms: _154  and  _155
REMARK   60  A    between atoms: _154  and  _157
REMARK   61  A    between atoms: _157  and  _158
REMARK   62  A    between atoms: _160  and  _162
REMARK   63  A    between atoms: _162  and  _163
REMARK   64  A    between atoms: _166  and  _168
REMARK   65  A    between atoms: _168  and  _169
REMARK   66  A    between atoms: _168  and  _171
REMARK   67  A    between atoms: _171  and  _172
REMARK   68  A    between atoms: _175  and  _177
REMARK   69  A    between atoms: _177  and  _178
REMARK   70  A    between atoms: _181  and  _183
REMARK   71  A    between atoms: _183  and  _184
REMARK   72  A    between atoms: _183  and  _186
REMARK   73  A    between atoms: _186  and  _187
REMARK   74  A    between atoms: _187  and  _188
REMARK   75  A    between atoms: _188  and  _189
REMARK   76  A    between atoms: _189  and  _190
REMARK   77  A    between atoms: _194  and  _196
REMARK   78  A    between atoms: _196  and  _197
REMARK   79  A    between atoms: _199  and  _201
REMARK   80  A    between atoms: _201  and  _202
REMARK   81  A    between atoms: _201  and  _204
REMARK   82  A    between atoms: _204  and  _205
REMARK   83  A    between atoms: _205  and  _206
REMARK   84  A    between atoms: _206  and  _207
REMARK   85  A    between atoms: _216  and  _218
REMARK   86  A    between atoms: _218  and  _219
REMARK   87  A    between atoms: _218  and  _221
REMARK   88  A    between atoms: _224  and  _226
REMARK   89  A    between atoms: _226  and  _227
REMARK   90  A    between atoms: _226  and  _229
REMARK   91  A    between atoms: _229  and  _230
REMARK   92  A    between atoms: _230  and  _231
REMARK   93  A    between atoms: _231  and  _232
REMARK   94  A    between atoms: _241  and  _243
REMARK   95  A    between atoms: _243  and  _244
REMARK   96  A    between atoms: _243  and  _246
REMARK   97  A    between atoms: _246  and  _247
REMARK   98  A    between atoms: _250  and  _252
REMARK   99  A    between atoms: _252  and  _253
REMARK  100  A    between atoms: _252  and  _255
REMARK  101  A    between atoms: _255  and  _256
REMARK  102  A    between atoms: _259  and  _261
REMARK  103  A    between atoms: _261  and  _262
REMARK  104  A    between atoms: _261  and  _264
REMARK  105  A    between atoms: _267  and  _269
REMARK  106  A    between atoms: _269  and  _270
REMARK  107  A    between atoms: _273  and  _275
REMARK  108  A    between atoms: _275  and  _276
REMARK  109  A    between atoms: _275  and  _278
REMARK  110  A    between atoms: _278  and  _279
REMARK  111  A    between atoms: _282  and  _284
REMARK  112  A    between atoms: _284  and  _285
REMARK  113  A    between atoms: _284  and  _287
REMARK  114  A    between atoms: _287  and  _288
REMARK  115  A    between atoms: _288  and  _289
REMARK  116  A    between atoms: _291  and  _293
REMARK  117  A    between atoms: _293  and  _294
REMARK  118  A    between atoms: _293  and  _296
REMARK  119  A    between atoms: _299  and  _301
REMARK  120  A    between atoms: _301  and  _302
REMARK  121  A    between atoms: _304  and  _306
REMARK  122  A    between atoms: _306  and  _307
REMARK  123  A    between atoms: _306  and  _309
REMARK  124  A    between atoms: _309  and  _310
REMARK  125  A    between atoms: _313  and  _315
REMARK  126  A    between atoms: _315  and  _316
REMARK  127  A    between atoms: _315  and  _318
REMARK  128  A    between atoms: _318  and  _319
REMARK  129  A    between atoms: _325  and  _327
REMARK  130  A    between atoms: _327  and  _328
REMARK  131  A    between atoms: _327  and  _330
REMARK  132  A    between atoms: _330  and  _331
REMARK  133  A    between atoms: _331  and  _332
REMARK  134  A    between atoms: _334  and  _336
REMARK  135  A    between atoms: _336  and  _337
REMARK  136  A    between atoms: _336  and  _339
REMARK  137  A    between atoms: _339  and  _340
REMARK  138  A    between atoms: _340  and  _341
REMARK  139  A    between atoms: _341  and  _342
REMARK  140  A    between atoms: _342  and  _343
REMARK  141  A    between atoms: _347  and  _349
REMARK  142  A    between atoms: _349  and  _350
REMARK  143  A    between atoms: _349  and  _352
REMARK  144  A    between atoms: _352  and  _353
REMARK  145  A    between atoms: _358  and  _359
REMARK  146  A    between atoms: _361  and  _363
REMARK  147  A    between atoms: _363  and  _364
REMARK  148  A    between atoms: _363  and  _366
REMARK  149  A    between atoms: _366  and  _367
REMARK  150  A    between atoms: _377  and  _379
REMARK  151  A    between atoms: _379  and  _380
REMARK  152  A    between atoms: _382  and  _384
REMARK  153  A    between atoms: _384  and  _385
REMARK  154  A    between atoms: _384  and  _387
REMARK  155  A    between atoms: _387  and  _388
REMARK  156  A    between atoms: _394  and  _396
REMARK  157  A    between atoms: _396  and  _397
REMARK  158  A    between atoms: _396  and  _399
REMARK  159  A    between atoms: _399  and  _400
REMARK  160  A    between atoms: _403  and  _405
REMARK  161  A    between atoms: _405  and  _406
REMARK  162  A    between atoms: _405  and  _408
REMARK  163  A    between atoms: _408  and  _409
REMARK  164  A    between atoms: _409  and  _410
REMARK  165  A    between atoms: _415  and  _417
REMARK  166  A    between atoms: _417  and  _418
REMARK  167  A    between atoms: _417  and  _420
REMARK  168  A    between atoms: _420  and  _421
REMARK  169  A    between atoms: _421  and  _422
REMARK  170  A    between atoms: _422  and  _423
REMARK  171  A    between atoms: _423  and  _424
REMARK  172  A    between atoms: _428  and  _430
REMARK  173  A    between atoms: _430  and  _431
REMARK  174  A    between atoms: _433  and  _435
REMARK  175  A    between atoms: _435  and  _436
REMARK  176  A    between atoms: _435  and  _438
REMARK  177  A    between atoms: _438  and  _439
REMARK  178  A    between atoms: _442  and  _444
REMARK  179  A    between atoms: _444  and  _445
REMARK  180  A    between atoms: _444  and  _447
REMARK  181  A    between atoms: _447  and  _448
REMARK  182  A    between atoms: _451  and  _453
REMARK  183  A    between atoms: _453  and  _454
REMARK  184  A    between atoms: _453  and  _456
REMARK  185  A    between atoms: _456  and  _457
REMARK  186  A    between atoms: _462  and  _464
REMARK  187  A    between atoms: _464  and  _465
REMARK  188  A    between atoms: _464  and  _467
REMARK  189  A    between atoms: _467  and  _468
REMARK  190  A    between atoms: _478  and  _480
REMARK  191  A    between atoms: _480  and  _481
REMARK  192  A    between atoms: _480  and  _483
REMARK  193  A    between atoms: _483  and  _484
REMARK  194  A    between atoms: _484  and  _485
REMARK  195  A    between atoms: _490  and  _492
REMARK  196  A    between atoms: _492  and  _493
REMARK  197  A    between atoms: _492  and  _495
REMARK  198  A    between atoms: _495  and  _496
REMARK  199  A    between atoms: _501  and  _502
REMARK  200  A    between atoms: _504  and  _506
REMARK  201  A    between atoms: _506  and  _507
REMARK  202  A    between atoms: _506  and  _509
REMARK  203  A    between atoms: _509  and  _510
REMARK  204  A    between atoms: _512  and  _514
REMARK  205  A    between atoms: _514  and  _515
REMARK  206  A    between atoms: _514  and  _517
REMARK  207  A    between atoms: _517  and  _518
REMARK  208  A    between atoms: _518  and  _519
REMARK  209  A    between atoms: _519  and  _520
REMARK  210  A    between atoms: _529  and  _531
REMARK  211  A    between atoms: _531  and  _532
REMARK  212  A    between atoms: _531  and  _534
REMARK  213  A    between atoms: _534  and  _535
REMARK  214  A    between atoms: _540  and  _541
REMARK  215  A    between atoms: _543  and  _545
REMARK  216  A    between atoms: _545  and  _546
REMARK  217  A    between atoms: _545  and  _548
REMARK  218  A    between atoms: _548  and  _549
REMARK  219  A    between atoms: _551  and  _553
REMARK  220  A    between atoms: _553  and  _554
REMARK  221  A    between atoms: _553  and  _556
REMARK  222  A    between atoms: _556  and  _557
REMARK  223  A    between atoms: _563  and  _565
REMARK  224  A    between atoms: _565  and  _566
REMARK  225  A    between atoms: _565  and  _568
REMARK  226  A    between atoms: _568  and  _569
REMARK                            x       y       z     vdW  Elec       q    Type
REMARK                         _______ _______ _______ _____ _____    ______ ____
ROOT
ATOM      1  NE  ARG A   1      25.704  17.774  55.220  0.00  0.00    -0.265 N 
ATOM      2  HE  ARG A   1      25.531  17.995  56.221  0.00  0.00    +0.259 HD
ATOM      3  CZ  ARG A   1      26.957  17.895  54.781  0.00  0.00    +0.342 C 
ATOM      4  NH2 ARG A   1      27.784  18.330  55.709  0.00  0.00    -0.292 N 
ATOM      5 HH21 ARG A   1      27.430  18.538  56.665  0.00  0.00    +0.255 HD
ATOM      6 HH22 ARG A   1      28.791  18.465  55.486  0.00  0.00    +0.255 HD
ATOM      7  NH1 ARG A   1      27.391  17.610  53.531  0.00  0.00    -0.292 N 
ATOM      8 HH11 ARG A   1      28.394  17.739  53.287  0.00  0.00    +0.255 HD
ATOM      9 HH12 ARG A   1      26.722  17.262  52.815  0.00  0.00    +0.255 HD
ENDROOT
BRANCH   1  10
ATOM     10  CD  ARG A   1      24.563  17.364  54.432  0.00  0.00    +0.174 C 
BRANCH  10  11
ATOM     11  CG  ARG A   1      23.410  18.189  54.924  0.00  0.00    +0.045 C 
BRANCH  11  12
ATOM     12  CB  ARG A   1      22.425  17.370  55.708  0.00  0.00    +0.029 C 
BRANCH  12  13
ATOM     13  CA  ARG A   1      21.102  17.118  54.968  0.00  0.00    +0.133 C 
BRANCH  13  14
ATOM     14  N   ARG A   1      20.471  18.356  54.511  0.00  0.00    -0.239 NA
ATOM     15  H   ARG A   1      20.706  19.241  55.004  0.00  0.00    +0.142 HD
ENDBRANCH  13  14
BRANCH  13  16
ATOM     16  C   ARG A   1      20.199  16.378  55.945  0.00  0.00    +0.224 C 
ATOM     17  O   ARG A   1      20.303  15.153  56.086  0.00  0.00    -0.287 OA
ENDBRANCH  13  16
ENDBRANCH  12  13
ENDBRANCH  11  12
ENDBRANCH  10  11
ENDBRANCH   1  10
TORSDOF 6
REMARK  Name = ../refined-set-2016/1rbp/1rbp_pocket.pdb
REMARK  226 active torsions:
REMARK  status: ('A' for Active; 'I' for Inactive)
REMARK    1  A    between atoms: _1  and  _3
REMARK    2  A    between atoms: _3  and  _4
REMARK    3  A    between atoms: _3  and  _6
REMARK    4  A    between atoms: _6  and  _7
REMARK    5  A    between atoms: _13  and  _15
REMARK    6  A    between atoms: _15  and  _16
REMARK    7  A    between atoms: _15  and  _18
REMARK    8  A    between atoms: _18  and  _19
REMARK    9  A    between atoms: _29  and  _31
REMARK   10  A    between atoms: _31  and  _32
REMARK   11  A    between atoms: _36  and  _37
REMARK   12  A    between atoms: _42  and  _44
REMARK   13  A    between atoms: _44  and  _45
REMARK   14  A    between atoms: _44  and  _47
REMARK   15  A    between atoms: _47  and  _48
REMARK   16  A    between atoms: _48  and  _49
REMARK   17  A    between atoms: _52  and  _54
REMARK   18  A    between atoms: _54  and  _55
REMARK   19  A    between atoms: _57  and  _59
REMARK   20  A    between atoms: _59  and  _60
REMARK   21  A    between atoms: _59  and  _62
REMARK   22  A    between atoms: _62  and  _63
REMARK   23  A    between atoms: _66  and  _68
REMARK   24  A    between atoms: _68  and  _69
REMARK   25  A    between atoms: _68  and  _71
REMARK   26  A    between atoms: _71  and  _72
REMARK   27  A    between atoms: _78  and  _80
REMARK   28  A    between atoms: _80  and  _81
REMARK   29  A    between atoms: _80  and  _83
REMARK   30  A    between atoms: _83  and  _84
REMARK   31  A    between atoms: _87  and  _89
REMARK   32  A    between atoms: _89  and  _90
REMARK   33  A    between atoms: _89  and  _92
REMARK   34  A    between atoms: _92  and  _93
REMARK   35  A    between atoms: _93  and  _94
REMARK   36  A    between atoms: _99  and  _101
REMARK   37  A    between atoms: _101  and  _102
REMARK   38  A    between atoms: _101  and  _104
REMARK   39  A    between atoms: _104  and  _105
REMARK   40  A    between atoms: _108  and  _110
REMARK   41  A    between atoms: _110  and  _111
REMARK   42  A    between atoms: _110  and  _113
REMARK   43  A    between atoms: _116  and  _118
REMARK   44  A    between atoms: _118  and  _119
REMARK   45  A    between atoms: _122  and  _124
REMARK   46  A    between atoms: _124  and  _125
REMARK   47  A    between atoms: _124  and  _127
REMARK   48  A    between atoms: _127  and  _128
REMARK   49  A    between atoms: _128  and  _129
REMARK   50  A    between atoms: _132  and  _134
REMARK   51  A    between atoms: _134  and  _135
REMARK   52  A    between atoms: _134  and  _137
REMARK   53  A    between atoms: _137  and  _138
REMARK   54  A    between atoms: _144  and  _146
REMARK   55  A    between atoms: _146  and  _147
REMARK   56  A    between atoms: _146  and  _149
REMARK   57  A    between atoms: _149  and  _150
REMARK   58  A    between atoms: _152  and  _154
REMARK   59  A    between atoms: _154  and  _155
REMARK   60  A    between atoms: _154  and  _157
REMARK   61  A    between atoms: _157  and  _158
REMARK   62  A    between atoms: _160  and  _162
REMARK   63  A    between atoms: _162  and  _163
REMARK   64  A    between atoms: _166  and  _168
REMARK   65  A    between atoms: _168  and  _169
REMARK   66  A    between atoms: _168  and  _171
REMARK   67  A    between atoms: _171  and  _172
REMARK   68  A    between atoms: _175  and  _177
REMARK   69  A    between atoms: _177  and  _178
REMARK   70  A    between atoms: _181  and  _183
REMARK   71  A    between atoms: _183  and  _184
REMARK   72  A    between atoms: _183  and  _186
REMARK   73  A    between atoms: _186  and  _187
REMARK   74  A    between atoms: _187  and  _188
REMARK   75  A    between atoms: _188  and  _189
REMARK   76  A    between atoms: _189  and  _190
REMARK   77  A    between atoms: _194  and  _196
REMARK   78  A    between atoms: _196  and  _197
REMARK   79  A    between atoms: _199  and  _201
REMARK   80  A    between atoms: _201  and  _202
REMARK   81  A    between atoms: _201  and  _204
REMARK   82  A    between atoms: _204  and  _205
REMARK   83  A    between atoms: _205  and  _206
REMARK   84  A    between atoms: _206  and  _207
REMARK   85  A    between atoms: _216  and  _218
REMARK   86  A    between atoms: _218  and  _219
REMARK   87  A    between atoms: _218  and  _221
REMARK   88  A    between atoms: _224  and  _226
REMARK   89  A    between atoms: _226  and  _227
REMARK   90  A    between atoms: _226  and  _229
REMARK   91  A    between atoms: _229  and  _230
REMARK   92  A    between atoms: _230  and  _231
REMARK   93  A    between atoms: _231  and  _232
REMARK   94  A    between atoms: _241  and  _243
REMARK   95  A    between atoms: _243  and  _244
REMARK   96  A    between atoms: _243  and  _246
REMARK   97  A    between atoms: _246  and  _247
REMARK   98  A    between atoms: _250  and  _252
REMARK   99  A    between atoms: _252  and  _253
REMARK  100  A    between atoms: _252  and  _255
REMARK  101  A    between atoms: _255  and  _256
REMARK  102  A    between atoms: _259  and  _261
REMARK  103  A    between atoms: _261  and  _262
REMARK  104  A    between atoms: _261  and  _264
REMARK  105  A    between atoms: _267  and  _269
REMARK  106  A    between atoms: _269  and  _270
REMARK  107  A    between atoms: _273  and  _275
REMARK  108  A    between atoms: _275  and  _276
REMARK  109  A    between atoms: _275  and  _278
REMARK  110  A    between atoms: _278  and  _279
REMARK  111  A    between atoms: _282  and  _284
REMARK  112  A    between atoms: _284  and  _285
REMARK  113  A    between atoms: _284  and  _287
REMARK  114  A    between atoms: _287  and  _288
REMARK  115  A    between atoms: _288  and  _289
REMARK  116  A    between atoms: _291  and  _293
REMARK  117  A    between atoms: _293  and  _294
REMARK  118  A    between atoms: _293  and  _296
REMARK  119  A    between atoms: _299  and  _301
REMARK  120  A    between atoms: _301  and  _302
REMARK  121  A    between atoms: _304  and  _306
REMARK  122  A    between atoms: _306  and  _307
REMARK  123  A    between atoms: _306  and  _309
REMARK  124  A    between atoms: _309  and  _310
REMARK  125  A    between atoms: _313  and  _315
REMARK  126  A    between atoms: _315  and  _316
REMARK  127  A    between atoms: _315  and  _318
REMARK  128  A    between atoms: _318  and  _319
REMARK  129  A    between atoms: _325  and  _327
REMARK  130  A    between atoms: _327  and  _328
REMARK  131  A    between atoms: _327  and  _330
REMARK  132  A    between atoms: _330  and  _331
REMARK  133  A    between atoms: _331  and  _332
REMARK  134  A    between atoms: _334  and  _336
REMARK  135  A    between atoms: _336  and  _337
REMARK  136  A    between atoms: _336  and  _339
REMARK  137  A    between atoms: _339  and  _340
REMARK  138  A    between atoms: _340  and  _341
REMARK  139  A    between atoms: _341  and  _342
REMARK  140  A    between atoms: _342  and  _343
REMARK  141  A    between atoms: _347  and  _349
REMARK  142  A    between atoms: _349  and  _350
REMARK  143  A    between atoms: _349  and  _352
REMARK  144  A    between atoms: _352  and  _353
REMARK  145  A    between atoms: _358  and  _359
REMARK  146  A    between atoms: _361  and  _363
REMARK  147  A    between atoms: _363  and  _364
REMARK  148  A    between atoms: _363  and  _366
REMARK  149  A    between atoms: _366  and  _367
REMARK  150  A    between atoms: _377  and  _379
REMARK  151  A    between atoms: _379  and  _380
REMARK  152  A    between atoms: _382  and  _384
REMARK  153  A    between atoms: _384  and  _385
REMARK  154  A    between atoms: _384  and  _387
REMARK  155  A    between atoms: _387  and  _388
REMARK  156  A    between atoms: _394  and  _396
REMARK  157  A    between atoms: _396  and  _397
REMARK  158  A    between atoms: _396  and  _399
REMARK  159  A    between atoms: _399  and  _400
REMARK  160  A    between atoms: _403  and  _405
REMARK  161  A    between atoms: _405  and  _406
REMARK  162  A    between atoms: _405  and  _408
REMARK  163  A    between atoms: _408  and  _409
REMARK  164  A    between atoms: _409  and  _410
REMARK  165  A    between atoms: _415  and  _417
REMARK  166  A    between atoms: _417  and  _418
REMARK  167  A    between atoms: _417  and  _420
REMARK  168  A    between atoms: _420  and  _421
REMARK  169  A    between atoms: _421  and  _422
REMARK  170  A    between atoms: _422  and  _423
REMARK  171  A    between atoms: _423  and  _424
REMARK  172  A    between atoms: _428  and  _430
REMARK  173  A    between atoms: _430  and  _431
REMARK  174  A    between atoms: _433  and  _435
REMARK  175  A    between atoms: _435  and  _436
REMARK  176  A    between atoms: _435  and  _438
REMARK  177  A    between atoms: _438  and  _439
REMARK  178  A    between atoms: _442  and  _444
REMARK  179  A    between atoms: _444  and  _445
REMARK  180  A    between atoms: _444  and  _447
REMARK  181  A    between atoms: _447  and  _448
REMARK  182  A    between atoms: _451  and  _453
REMARK  183  A    between atoms: _453  and  _454
REMARK  184  A    between atoms: _453  and  _456
REMARK  185  A    between atoms: _456  and  _457
REMARK  186  A    between atoms: _462  and  _464
REMARK  187  A    between atoms: _464  and  _465
REMARK  188  A    between atoms: _464  and  _467
REMARK  189  A    between atoms: _467  and  _468
REMARK  190  A    between atoms: _478  and  _480
REMARK  191  A    between atoms: _480  and  _481
REMARK  192  A    between atoms: _480  and  _483
REMARK  193  A    between atoms: _483  and  _484
REMARK  194  A    between atoms: _484  and  _485
REMARK  195  A    between atoms: _490  and  _492
REMARK  196  A    between atoms: _492  and  _493
REMARK  197  A    between atoms: _492  and  _495
REMARK  198  A    between atoms: _495  and  _496
REMARK  199  A    between atoms: _501  and  _502
REMARK  200  A    between atoms: _504  and  _506
REMARK  201  A    between atoms: _506  and  _507
REMARK  202  A    between atoms: _506  and  _509
REMARK  203  A    between atoms: _509  and  _510
REMARK  204  A    between atoms: _512  and  _514
REMARK  205  A    between atoms: _514  and  _515
REMARK  206  A    between atoms: _514  and  _517
REMARK  207  A    between atoms: _517  and  _518
REMARK  208  A    between atoms: _518  and  _519
REMARK  209  A    between atoms: _519  and  _520
REMARK  210  A    between atoms: _529  and  _531
REMARK  211  A    between atoms: _531  and  _532
REMARK  212  A    between atoms: _531  and  _534
REMARK  213  A    between atoms: _534  and  _535
REMARK  214  A    between atoms: _540  and  _541
REMARK  215  A    between atoms: _543  and  _545
REMARK  216  A    between atoms: _545  and  _546
REMARK  217  A    between atoms: _545  and  _548
REMARK  218  A    between atoms: _548  and  _549
REMARK  219  A    between atoms: _551  and  _553
REMARK  220  A    between atoms: _553  and  _554
REMARK  221  A    between atoms: _553  and  _556
REMARK  222  A    between atoms: _556  and  _557
REMARK  223  A    between atoms: _563  and  _565
REMARK  224  A    between atoms: _565  and  _566
REMARK  225  A    between atoms: _565  and  _568
REMARK  226  A    between atoms: _568  and  _569
REMARK                            x       y       z     vdW  Elec       q    Type
REMARK                         _______ _______ _______ _____ _____    ______ ____
ROOT
ATOM      1  CA  SER A   2      23.577  26.647  50.274  0.00  0.00    +0.178 C 
ENDROOT
BRANCH   1   3
ATOM      2  C   TYR A   1      23.522  24.887  51.932  0.00  0.00    +0.239 C 
ATOM      3  N   SER A   2      23.979  26.075  51.542  0.00  0.00    -0.295 N 
ATOM      4  H   SER A   2      24.634  26.600  52.157  0.00  0.00    +0.150 HD
ATOM      5  O   TYR A   1      22.736  24.273  51.215  0.00  0.00    -0.274 OA
BRANCH   2   6
ATOM      6  CA  TYR A   1      23.985  24.287  53.260  0.00  0.00    +0.149 C 
BRANCH   6   7
ATOM      7  N   TYR A   1      22.967  23.374  53.753  0.00  0.00    -0.238 NA
ATOM      8  H   TYR A   1      22.481  22.744  53.083  0.00  0.00    +0.142 HD
ENDBRANCH   6   7
BRANCH   6   9
ATOM      9  CB  TYR A   1      25.379  23.605  53.053  0.00  0.00    +0.053 C 
BRANCH   9  10
ATOM     10  CG  TYR A   1      25.560  22.470  52.050  0.00  0.00    -0.020 A 
ATOM     11  CD2 TYR A   1      25.402  21.162  52.469  0.00  0.00    -0.001 A 
ATOM     12  CE2 TYR A   1      25.585  20.134  51.571  0.00  0.00    +0.036 A 
ATOM     13  CZ  TYR A   1      25.927  20.409  50.264  0.00  0.00    +0.134 A 
ATOM     14  CE1 TYR A   1      26.088  21.706  49.843  0.00  0.00    +0.036 A 
ATOM     15  CD1 TYR A   1      25.905  22.739  50.742  0.00  0.00    -0.001 A 
BRANCH  13  16
ATOM     16  OH  TYR A   1      26.070  19.363  49.380  0.00  0.00    -0.506 OA
ATOM     17  HH  TYR A   1      26.782  18.755  49.702  0.00  0.00    +0.292 HD
ENDBRANCH  13  16
ENDBRANCH   9  10
ENDBRANCH   6   9
ENDBRANCH   2   6
ENDBRANCH   1   3
BRANCH   1  18
ATOM     18  C   SER A   2      24.703  27.427  49.649  0.00  0.00    +0.243 C 
ATOM     19  O   SER A   2      25.536  27.984  50.356  0.00  0.00    -0.273 OA
ATOM     20  N   PHE A   3      24.806  27.482  48.331  0.00  0.00    -0.298 N 
ATOM     21  H   PHE A   3      24.158  26.927  47.736  0.00  0.00    +0.150 HD
BRANCH  20  22
ATOM     22  CA  PHE A   3      25.823  28.316  47.712  0.00  0.00    +0.141 C 
BRANCH  22  23
ATOM     23  C   PHE A   3      25.198  29.200  46.670  0.00  0.00    +0.227 C 
ATOM     24  O   PHE A   3      24.200  28.869  46.031  0.00  0.00    -0.286 OA
ENDBRANCH  22  23
BRANCH  22  25
ATOM     25  CB  PHE A   3      26.901  27.563  46.964  0.00  0.00    +0.054 C 
BRANCH  25  26
ATOM     26  CG  PHE A   3      27.930  26.704  47.699  0.00  0.00    -0.020 A 
ATOM     27  CD2 PHE A   3      29.168  27.240  48.019  0.00  0.00    -0.004 A 
ATOM     28  CE2 PHE A   3      30.129  26.430  48.571  0.00  0.00    -0.000 A 
ATOM     29  CZ  PHE A   3      29.876  25.107  48.810  0.00  0.00    -0.000 A 
ATOM     30  CE1 PHE A   3      28.652  24.571  48.506  0.00  0.00    -0.000 A 
ATOM     31  CD1 PHE A   3      27.675  25.368  47.953  0.00  0.00    -0.004 A 
ENDBRANCH  25  26
ENDBRANCH  22  25
ENDBRANCH  20  22
ENDBRANCH   1  18
BRANCH   1  32
ATOM     32  CB  SER A   2      22.388  27.538  50.515  0.00  0.00    +0.166 C 
BRANCH  32  33
ATOM     33  OG  SER A   2      21.895  28.215  49.360  0.00  0.00    -0.380 OA
ATOM     34  H   SER A   2      21.617  27.549  48.682  0.00  0.00    +0.211 HD
ENDBRANCH  32  33
ENDBRANCH   1  32
TORSDOF 13
REMARK  Name = ../refined-set-2016/1rbp/1rbp_pocket.pdb
REMARK  226 active torsions:
REMARK  status: ('A' for Active; 'I' for Inactive)
REMARK    1  A    between atoms: _1  and  _3
REMARK    2  A    between atoms: _3  and  _4
REMARK    3  A    between atoms: _3  and  _6
REMARK    4  A    between atoms: _6  and  _7
REMARK    5  A    between atoms: _13  and  _15
REMARK    6  A    between atoms: _15  and  _16
REMARK    7  A    between atoms: _15  and  _18
REMARK    8  A    between atoms: _18  and  _19
REMARK    9  A    between atoms: _29  and  _31
REMARK   10  A    between atoms: _31  and  _32
REMARK   11  A    between atoms: _36  and  _37
REMARK   12  A    between atoms: _42  and  _44
REMARK   13  A    between atoms: _44  and  _45
REMARK   14  A    between atoms: _44  and  _47
REMARK   15  A    between atoms: _47  and  _48
REMARK   16  A    between atoms: _48  and  _49
REMARK   17  A    between atoms: _52  and  _54
REMARK   18  A    between atoms: _54  and  _55
REMARK   19  A    between atoms: _57  and  _59
REMARK   20  A    between atoms: _59  and  _60
REMARK   21  A    between atoms: _59  and  _62
REMARK   22  A    between atoms: _62  and  _63
REMARK   23  A    between atoms: _66  and  _68
REMARK   24  A    between atoms: _68  and  _69
REMARK   25  A    between atoms: _68  and  _71
REMARK   26  A    between atoms: _71  and  _72
REMARK   27  A    between atoms: _78  and  _80
REMARK   28  A    between atoms: _80  and  _81
REMARK   29  A    between atoms: _80  and  _83
REMARK   30  A    between atoms: _83  and  _84
REMARK   31  A    between atoms: _87  and  _89
REMARK   32  A    between atoms: _89  and  _90
REMARK   33  A    between atoms: _89  and  _92
REMARK   34  A    between atoms: _92  and  _93
REMARK   35  A    between atoms: _93  and  _94
REMARK   36  A    between atoms: _99  and  _101
REMARK   37  A    between atoms: _101  and  _102
REMARK   38  A    between atoms: _101  and  _104
REMARK   39  A    between atoms: _104  and  _105
REMARK   40  A    between atoms: _108  and  _110
REMARK   41  A    between atoms: _110  and  _111
REMARK   42  A    between atoms: _110  and  _113
REMARK   43  A    between atoms: _116  and  _118
REMARK   44  A    between atoms: _118  and  _119
REMARK   45  A    between atoms: _122  and  _124
REMARK   46  A    between atoms: _124  and  _125
REMARK   47  A    between atoms: _124  and  _127
REMARK   48  A    between atoms: _127  and  _128
REMARK   49  A    between atoms: _128  and  _129
REMARK   50  A    between atoms: _132  and  _134
REMARK   51  A    between atoms: _134  and  _135
REMARK   52  A    between atoms: _134  and  _137
REMARK   53  A    between atoms: _137  and  _138
REMARK   54  A    between atoms: _144  and  _146
REMARK   55  A    between atoms: _146  and  _147
REMARK   56  A    between atoms: _146  and  _149
REMARK   57  A    between atoms: _149  and  _150
REMARK   58  A    between atoms: _152  and  _154
REMARK   59  A    between atoms: _154  and  _155
REMARK   60  A    between atoms: _154  and  _157
REMARK   61  A    between atoms: _157  and  _158
REMARK   62  A    between atoms: _160  and  _162
REMARK   63  A    between atoms: _162  and  _163
REMARK   64  A    between atoms: _166  and  _168
REMARK   65  A    between atoms: _168  and  _169
REMARK   66  A    between atoms: _168  and  _171
REMARK   67  A    between atoms: _171  and  _172
REMARK   68  A    between atoms: _175  and  _177
REMARK   69  A    between atoms: _177  and  _178
REMARK   70  A    between atoms: _181  and  _183
REMARK   71  A    between atoms: _183  and  _184
REMARK   72  A    between atoms: _183  and  _186
REMARK   73  A    between atoms: _186  and  _187
REMARK   74  A    between atoms: _187  and  _188
REMARK   75  A    between atoms: _188  and  _189
REMARK   76  A    between atoms: _189  and  _190
REMARK   77  A    between atoms: _194  and  _196
REMARK   78  A    between atoms: _196  and  _197
REMARK   79  A    between atoms: _199  and  _201
REMARK   80  A    between atoms: _201  and  _202
REMARK   81  A    between atoms: _201  and  _204
REMARK   82  A    between atoms: _204  and  _205
REMARK   83  A    between atoms: _205  and  _206
REMARK   84  A    between atoms: _206  and  _207
REMARK   85  A    between atoms: _216  and  _218
REMARK   86  A    between atoms: _218  and  _219
REMARK   87  A    between atoms: _218  and  _221
REMARK   88  A    between atoms: _224  and  _226
REMARK   89  A    between atoms: _226  and  _227
REMARK   90  A    between atoms: _226  and  _229
REMARK   91  A    between atoms: _229  and  _230
REMARK   92  A    between atoms: _230  and  _231
REMARK   93  A    between atoms: _231  and  _232
REMARK   94  A    between atoms: _241  and  _243
REMARK   95  A    between atoms: _243  and  _244
REMARK   96  A    between atoms: _243  and  _246
REMARK   97  A    between atoms: _246  and  _247
REMARK   98  A    between atoms: _250  and  _252
REMARK   99  A    between atoms: _252  and  _253
REMARK  100  A    between atoms: _252  and  _255
REMARK  101  A    between atoms: _255  and  _256
REMARK  102  A    between atoms: _259  and  _261
REMARK  103  A    between atoms: _261  and  _262
REMARK  104  A    between atoms: _261  and  _264
REMARK  105  A    between atoms: _267  and  _269
REMARK  106  A    between atoms: _269  and  _270
REMARK  107  A    between atoms: _273  and  _275
REMARK  108  A    between atoms: _275  and  _276
REMARK  109  A    between atoms: _275  and  _278
REMARK  110  A    between atoms: _278  and  _279
REMARK  111  A    between atoms: _282  and  _284
REMARK  112  A    between atoms: _284  and  _285
REMARK  113  A    between atoms: _284  and  _287
REMARK  114  A    between atoms: _287  and  _288
REMARK  115  A    between atoms: _288  and  _289
REMARK  116  A    between atoms: _291  and  _293
REMARK  117  A    between atoms: _293  and  _294
REMARK  118  A    between atoms: _293  and  _296
REMARK  119  A    between atoms: _299  and  _301
REMARK  120  A    between atoms: _301  and  _302
REMARK  121  A    between atoms: _304  and  _306
REMARK  122  A    between atoms: _306  and  _307
REMARK  123  A    between atoms: _306  and  _309
REMARK  124  A    between atoms: _309  and  _310
REMARK  125  A    between atoms: _313  and  _315
REMARK  126  A    between atoms: _315  and  _316
REMARK  127  A    between atoms: _315  and  _318
REMARK  128  A    between atoms: _318  and  _319
REMARK  129  A    between atoms: _325  and  _327
REMARK  130  A    between atoms: _327  and  _328
REMARK  131  A    between atoms: _327  and  _330
REMARK  132  A    between atoms: _330  and  _331
REMARK  133  A    between atoms: _331  and  _332
REMARK  134  A    between atoms: _334  and  _336
REMARK  135  A    between atoms: _336  and  _337
REMARK  136  A    between atoms: _336  and  _339
REMARK  137  A    between atoms: _339  and  _340
REMARK  138  A    between atoms: _340  and  _341
REMARK  139  A    between atoms: _341  and  _342
REMARK  140  A    between atoms: _342  and  _343
REMARK  141  A    between atoms: _347  and  _349
REMARK  142  A    between atoms: _349  and  _350
REMARK  143  A    between atoms: _349  and  _352
REMARK  144  A    between atoms: _352  and  _353
REMARK  145  A    between atoms: _358  and  _359
REMARK  146  A    between atoms: _361  and  _363
REMARK  147  A    between atoms: _363  and  _364
REMARK  148  A    between atoms: _363  and  _366
REMARK  149  A    between atoms: _366  and  _367
REMARK  150  A    between atoms: _377  and  _379
REMARK  151  A    between atoms: _379  and  _380
REMARK  152  A    between atoms: _382  and  _384
REMARK  153  A    between atoms: _384  and  _385
REMARK  154  A    between atoms: _384  and  _387
REMARK  155  A    between atoms: _387  and  _388
REMARK  156  A    between atoms: _394  and  _396
REMARK  157  A    between atoms: _396  and  _397
REMARK  158  A    between atoms: _396  and  _399
REMARK  159  A    between atoms: _399  and  _400
REMARK  160  A    between atoms: _403  and  _405
REMARK  161  A    between atoms: _405  and  _406
REMARK  162  A    between atoms: _405  and  _408
REMARK  163  A    between atoms: _408  and  _409
REMARK  164  A    between atoms: _409  and  _410
REMARK  165  A    between atoms: _415  and  _417
REMARK  166  A    between atoms: _417  and  _418
REMARK  167  A    between atoms: _417  and  _420
REMARK  168  A    between atoms: _420  and  _421
REMARK  169  A    between atoms: _421  and  _422
REMARK  170  A    between atoms: _422  and  _423
REMARK  171  A    between atoms: _423  and  _424
REMARK  172  A    between atoms: _428  and  _430
REMARK  173  A    between atoms: _430  and  _431
REMARK  174  A    between atoms: _433  and  _435
REMARK  175  A    between atoms: _435  and  _436
REMARK  176  A    between atoms: _435  and  _438
REMARK  177  A    between atoms: _438  and  _439
REMARK  178  A    between atoms: _442  and  _444
REMARK  179  A    between atoms: _444  and  _445
REMARK  180  A    between atoms: _444  and  _447
REMARK  181  A    between atoms: _447  and  _448
REMARK  182  A    between atoms: _451  and  _453
REMARK  183  A    between atoms: _453  and  _454
REMARK  184  A    between atoms: _453  and  _456
REMARK  185  A    between atoms: _456  and  _457
REMARK  186  A    between atoms: _462  and  _464
REMARK  187  A    between atoms: _464  and  _465
REMARK  188  A    between atoms: _464  and  _467
REMARK  189  A    between atoms: _467  and  _468
REMARK  190  A    between atoms: _478  and  _480
REMARK  191  A    between atoms: _480  and  _481
REMARK  192  A    between atoms: _480  and  _483
REMARK  193  A    between atoms: _483  and  _484
REMARK  194  A    between atoms: _484  and  _485
REMARK  195  A    between atoms: _490  and  _492
REMARK  196  A    between atoms: _492  and  _493
REMARK  197  A    between atoms: _492  and  _495
REMARK  198  A    between atoms: _495  and  _496
REMARK  199  A    between atoms: _501  and  _502
REMARK  200  A    between atoms: _504  and  _506
REMARK  201  A    between atoms: _506  and  _507
REMARK  202  A    between atoms: _506  and  _509
REMARK  203  A    between atoms: _509  and  _510
REMARK  204  A    between atoms: _512  and  _514
REMARK  205  A    between atoms: _514  and  _515
REMARK  206  A    between atoms: _514  and  _517
REMARK  207  A    between atoms: _517  and  _518
REMARK  208  A    between atoms: _518  and  _519
REMARK  209  A    between atoms: _519  and  _520
REMARK  210  A    between atoms: _529  and  _531
REMARK  211  A    between atoms: _531  and  _532
REMARK  212  A    between atoms: _531  and  _534
REMARK  213  A    between atoms: _534  and  _535
REMARK  214  A    between atoms: _540  and  _541
REMARK  215  A    between atoms: _543  and  _545
REMARK  216  A    between atoms: _545  and  _546
REMARK  217  A    between atoms: _545  and  _548
REMARK  218  A    between atoms: _548  and  _549
REMARK  219  A    between atoms: _551  and  _553
REMARK  220  A    between atoms: _553  and  _554
REMARK  221  A    between atoms: _553  and  _556
REMARK  222  A    between atoms: _556  and  _557
REMARK  223  A    between atoms: _563  and  _565
REMARK  224  A    between atoms: _565  and  _566
REMARK  225  A    between atoms: _565  and  _568
REMARK  226  A    between atoms: _568  and  _569
REMARK                            x       y       z     vdW  Elec       q    Type
REMARK                         _______ _______ _______ _____ _____    ______ ____
ROOT
ATOM      1  CB  PHE A   1      27.400  29.606  41.620  0.00  0.00    +0.051 C 
ENDROOT
BRANCH   1   2
ATOM      2  CG  PHE A   1      27.799  28.378  42.437  0.00  0.00    -0.020 A 
ATOM      3  CD2 PHE A   1      26.838  27.482  42.829  0.00  0.00    -0.004 A 
ATOM      4  CE2 PHE A   1      27.191  26.348  43.544  0.00  0.00    -0.000 A 
ATOM      5  CZ  PHE A   1      28.514  26.106  43.869  0.00  0.00    -0.000 A 
ATOM      6  CE1 PHE A   1      29.485  27.008  43.479  0.00  0.00    -0.000 A 
ATOM      7  CD1 PHE A   1      29.122  28.139  42.766  0.00  0.00    -0.004 A 
ENDBRANCH   1   2
BRANCH   1   8
ATOM      8  CA  PHE A   1      27.490  30.928  42.385  0.00  0.00    +0.137 C 
BRANCH   8   9
ATOM      9  N   PHE A   1      26.474  30.927  43.423  0.00  0.00    -0.239 NA
ATOM     10  H   PHE A   1      25.547  30.510  43.200  0.00  0.00    +0.142 HD
ENDBRANCH   8   9
BRANCH   8  11
ATOM     11  C   PHE A   1      27.360  32.122  41.418  0.00  0.00    +0.224 C 
ATOM     12  O   PHE A   1      26.312  32.721  41.205  0.00  0.00    -0.287 OA
ENDBRANCH   8  11
ENDBRANCH   1   8
TORSDOF 4
REMARK  Name = ../refined-set-2016/1rbp/1rbp_pocket.pdb
REMARK  226 active torsions:
REMARK  status: ('A' for Active; 'I' for Inactive)
REMARK    1  A    between atoms: _1  and  _3
REMARK    2  A    between atoms: _3  and  _4
REMARK    3  A    between atoms: _3  and  _6
REMARK    4  A    between atoms: _6  and  _7
REMARK    5  A    between atoms: _13  and  _15
REMARK    6  A    between atoms: _15  and  _16
REMARK    7  A    between atoms: _15  and  _18
REMARK    8  A    between atoms: _18  and  _19
REMARK    9  A    between atoms: _29  and  _31
REMARK   10  A    between atoms: _31  and  _32
REMARK   11  A    between atoms: _36  and  _37
REMARK   12  A    between atoms: _42  and  _44
REMARK   13  A    between atoms: _44  and  _45
REMARK   14  A    between atoms: _44  and  _47
REMARK   15  A    between atoms: _47  and  _48
REMARK   16  A    between atoms: _48  and  _49
REMARK   17  A    between atoms: _52  and  _54
REMARK   18  A    between atoms: _54  and  _55
REMARK   19  A    between atoms: _57  and  _59
REMARK   20  A    between atoms: _59  and  _60
REMARK   21  A    between atoms: _59  and  _62
REMARK   22  A    between atoms: _62  and  _63
REMARK   23  A    between atoms: _66  and  _68
REMARK   24  A    between atoms: _68  and  _69
REMARK   25  A    between atoms: _68  and  _71
REMARK   26  A    between atoms: _71  and  _72
REMARK   27  A    between atoms: _78  and  _80
REMARK   28  A    between atoms: _80  and  _81
REMARK   29  A    between atoms: _80  and  _83
REMARK   30  A    between atoms: _83  and  _84
REMARK   31  A    between atoms: _87  and  _89
REMARK   32  A    between atoms: _89  and  _90
REMARK   33  A    between atoms: _89  and  _92
REMARK   34  A    between atoms: _92  and  _93
REMARK   35  A    between atoms: _93  and  _94
REMARK   36  A    between atoms: _99  and  _101
REMARK   37  A    between atoms: _101  and  _102
REMARK   38  A    between atoms: _101  and  _104
REMARK   39  A    between atoms: _104  and  _105
REMARK   40  A    between atoms: _108  and  _110
REMARK   41  A    between atoms: _110  and  _111
REMARK   42  A    between atoms: _110  and  _113
REMARK   43  A    between atoms: _116  and  _118
REMARK   44  A    between atoms: _118  and  _119
REMARK   45  A    between atoms: _122  and  _124
REMARK   46  A    between atoms: _124  and  _125
REMARK   47  A    between atoms: _124  and  _127
REMARK   48  A    between atoms: _127  and  _128
REMARK   49  A    between atoms: _128  and  _129
REMARK   50  A    between atoms: _132  and  _134
REMARK   51  A    between atoms: _134  and  _135
REMARK   52  A    between atoms: _134  and  _137
REMARK   53  A    between atoms: _137  and  _138
REMARK   54  A    between atoms: _144  and  _146
REMARK   55  A    between atoms: _146  and  _147
REMARK   56  A    between atoms: _146  and  _149
REMARK   57  A    between atoms: _149  and  _150
REMARK   58  A    between atoms: _152  and  _154
REMARK   59  A    between atoms: _154  and  _155
REMARK   60  A    between atoms: _154  and  _157
REMARK   61  A    between atoms: _157  and  _158
REMARK   62  A    between atoms: _160  and  _162
REMARK   63  A    between atoms: _162  and  _163
REMARK   64  A    between atoms: _166  and  _168
REMARK   65  A    between atoms: _168  and  _169
REMARK   66  A    between atoms: _168  and  _171
REMARK   67  A    between atoms: _171  and  _172
REMARK   68  A    between atoms: _175  and  _177
REMARK   69  A    between atoms: _177  and  _178
REMARK   70  A    between atoms: _181  and  _183
REMARK   71  A    between atoms: _183  and  _184
REMARK   72  A    between atoms: _183  and  _186
REMARK   73  A    between atoms: _186  and  _187
REMARK   74  A    between atoms: _187  and  _188
REMARK   75  A    between atoms: _188  and  _189
REMARK   76  A    between atoms: _189  and  _190
REMARK   77  A    between atoms: _194  and  _196
REMARK   78  A    between atoms: _196  and  _197
REMARK   79  A    between atoms: _199  and  _201
REMARK   80  A    between atoms: _201  and  _202
REMARK   81  A    between atoms: _201  and  _204
REMARK   82  A    between atoms: _204  and  _205
REMARK   83  A    between atoms: _205  and  _206
REMARK   84  A    between atoms: _206  and  _207
REMARK   85  A    between atoms: _216  and  _218
REMARK   86  A    between atoms: _218  and  _219
REMARK   87  A    between atoms: _218  and  _221
REMARK   88  A    between atoms: _224  and  _226
REMARK   89  A    between atoms: _226  and  _227
REMARK   90  A    between atoms: _226  and  _229
REMARK   91  A    between atoms: _229  and  _230
REMARK   92  A    between atoms: _230  and  _231
REMARK   93  A    between atoms: _231  and  _232
REMARK   94  A    between atoms: _241  and  _243
REMARK   95  A    between atoms: _243  and  _244
REMARK   96  A    between atoms: _243  and  _246
REMARK   97  A    between atoms: _246  and  _247
REMARK   98  A    between atoms: _250  and  _252
REMARK   99  A    between atoms: _252  and  _253
REMARK  100  A    between atoms: _252  and  _255
REMARK  101  A    between atoms: _255  and  _256
REMARK  102  A    between atoms: _259  and  _261
REMARK  103  A    between atoms: _261  and  _262
REMARK  104  A    between atoms: _261  and  _264
REMARK  105  A    between atoms: _267  and  _269
REMARK  106  A    between atoms: _269  and  _270
REMARK  107  A    between atoms: _273  and  _275
REMARK  108  A    between atoms: _275  and  _276
REMARK  109  A    between atoms: _275  and  _278
REMARK  110  A    between atoms: _278  and  _279
REMARK  111  A    between atoms: _282  and  _284
REMARK  112  A    between atoms: _284  and  _285
REMARK  113  A    between atoms: _284  and  _287
REMARK  114  A    between atoms: _287  and  _288
REMARK  115  A    between atoms: _288  and  _289
REMARK  116  A    between atoms: _291  and  _293
REMARK  117  A    between atoms: _293  and  _294
REMARK  118  A    between atoms: _293  and  _296
REMARK  119  A    between atoms: _299  and  _301
REMARK  120  A    between atoms: _301  and  _302
REMARK  121  A    between atoms: _304  and  _306
REMARK  122  A    between atoms: _306  and  _307
REMARK  123  A    between atoms: _306  and  _309
REMARK  124  A    between atoms: _309  and  _310
REMARK  125  A    between atoms: _313  and  _315
REMARK  126  A    between atoms: _315  and  _316
REMARK  127  A    between atoms: _315  and  _318
REMARK  128  A    between atoms: _318  and  _319
REMARK  129  A    between atoms: _325  and  _327
REMARK  130  A    between atoms: _327  and  _328
REMARK  131  A    between atoms: _327  and  _330
REMARK  132  A    between atoms: _330  and  _331
REMARK  133  A    between atoms: _331  and  _332
REMARK  134  A    between atoms: _334  and  _336
REMARK  135  A    between atoms: _336  and  _337
REMARK  136  A    between atoms: _336  and  _339
REMARK  137  A    between atoms: _339  and  _340
REMARK  138  A    between atoms: _340  and  _341
REMARK  139  A    between atoms: _341  and  _342
REMARK  140  A    between atoms: _342  and  _343
REMARK  141  A    between atoms: _347  and  _349
REMARK  142  A    between atoms: _349  and  _350
REMARK  143  A    between atoms: _349  and  _352
REMARK  144  A    between atoms: _352  and  _353
REMARK  145  A    between atoms: _358  and  _359
REMARK  146  A    between atoms: _361  and  _363
REMARK  147  A    between atoms: _363  and  _364
REMARK  148  A    between atoms: _363  and  _366
REMARK  149  A    between atoms: _366  and  _367
REMARK  150  A    between atoms: _377  and  _379
REMARK  151  A    between atoms: _379  and  _380
REMARK  152  A    between atoms: _382  and  _384
REMARK  153  A    between atoms: _384  and  _385
REMARK  154  A    between atoms: _384  and  _387
REMARK  155  A    between atoms: _387  and  _388
REMARK  156  A    between atoms: _394  and  _396
REMARK  157  A    between atoms: _396  and  _397
REMARK  158  A    between atoms: _396  and  _399
REMARK  159  A    between atoms: _399  and  _400
REMARK  160  A    between atoms: _403  and  _405
REMARK  161  A    between atoms: _405  and  _406
REMARK  162  A    between atoms: _405  and  _408
REMARK  163  A    between atoms: _408  and  _409
REMARK  164  A    between atoms: _409  and  _410
REMARK  165  A    between atoms: _415  and  _417
REMARK  166  A    between atoms: _417  and  _418
REMARK  167  A    between atoms: _417  and  _420
REMARK  168  A    between atoms: _420  and  _421
REMARK  169  A    between atoms: _421  and  _422
REMARK  170  A    between atoms: _422  and  _423
REMARK  171  A    between atoms: _423  and  _424
REMARK  172  A    between atoms: _428  and  _430
REMARK  173  A    between atoms: _430  and  _431
REMARK  174  A    between atoms: _433  and  _435
REMARK  175  A    between atoms: _435  and  _436
REMARK  176  A    between atoms: _435  and  _438
REMARK  177  A    between atoms: _438  and  _439
REMARK  178  A    between atoms: _442  and  _444
REMARK  179  A    between atoms: _444  and  _445
REMARK  180  A    between atoms: _444  and  _447
REMARK  181  A    between atoms: _447  and  _448
REMARK  182  A    between atoms: _451  and  _453
REMARK  183  A    between atoms: _453  and  _454
REMARK  184  A    between atoms: _453  and  _456
REMARK  185  A    between atoms: _456  and  _457
REMARK  186  A    between atoms: _462  and  _464
REMARK  187  A    between atoms: _464  and  _465
REMARK  188  A    between atoms: _464  and  _467
REMARK  189  A    between atoms: _467  and  _468
REMARK  190  A    between atoms: _478  and  _480
REMARK  191  A    between atoms: _480  and  _481
REMARK  192  A    between atoms: _480  and  _483
REMARK  193  A    between atoms: _483  and  _484
REMARK  194  A    between atoms: _484  and  _485
REMARK  195  A    between atoms: _490  and  _492
REMARK  196  A    between atoms: _492  and  _493
REMARK  197  A    between atoms: _492  and  _495
REMARK  198  A    between atoms: _495  and  _496
REMARK  199  A    between atoms: _501  and  _502
REMARK  200  A    between atoms: _504  and  _506
REMARK  201  A    between atoms: _506  and  _507
REMARK  202  A    between atoms: _506  and  _509
REMARK  203  A    between atoms: _509  and  _510
REMARK  204  A    between atoms: _512  and  _514
REMARK  205  A    between atoms: _514  and  _515
REMARK  206  A    between atoms: _514  and  _517
REMARK  207  A    between atoms: _517  and  _518
REMARK  208  A    between atoms: _518  and  _519
REMARK  209  A    between atoms: _519  and  _520
REMARK  210  A    between atoms: _529  and  _531
REMARK  211  A    between atoms: _531  and  _532
REMARK  212  A    between atoms: _531  and  _534
REMARK  213  A    between atoms: _534  and  _535
REMARK  214  A    between atoms: _540  and  _541
REMARK  215  A    between atoms: _543  and  _545
REMARK  216  A    between atoms: _545  and  _546
REMARK  217  A    between atoms: _545  and  _548
REMARK  218  A    between atoms: _548  and  _549
REMARK  219  A    between atoms: _551  and  _553
REMARK  220  A    between atoms: _553  and  _554
REMARK  221  A    between atoms: _553  and  _556
REMARK  222  A    between atoms: _556  and  _557
REMARK  223  A    between atoms: _563  and  _565
REMARK  224  A    between atoms: _565  and  _566
REMARK  225  A    between atoms: _565  and  _568
REMARK  226  A    between atoms: _568  and  _569
REMARK                            x       y       z     vdW  Elec       q    Type
REMARK                         _______ _______ _______ _____ _____    ______ ____
ROOT
ATOM      1  O   HOH     1      24.621  19.102  47.076  0.00  0.00    +0.000 OA
ENDROOT
TORSDOF 0
REMARK  Name = ../refined-set-2016/1rbp/1rbp_pocket.pdb
REMARK  226 active torsions:
REMARK  status: ('A' for Active; 'I' for Inactive)
REMARK    1  A    between atoms: _1  and  _3
REMARK    2  A    between atoms: _3  and  _4
REMARK    3  A    between atoms: _3  and  _6
REMARK    4  A    between atoms: _6  and  _7
REMARK    5  A    between atoms: _13  and  _15
REMARK    6  A    between atoms: _15  and  _16
REMARK    7  A    between atoms: _15  and  _18
REMARK    8  A    between atoms: _18  and  _19
REMARK    9  A    between atoms: _29  and  _31
REMARK   10  A    between atoms: _31  and  _32
REMARK   11  A    between atoms: _36  and  _37
REMARK   12  A    between atoms: _42  and  _44
REMARK   13  A    between atoms: _44  and  _45
REMARK   14  A    between atoms: _44  and  _47
REMARK   15  A    between atoms: _47  and  _48
REMARK   16  A    between atoms: _48  and  _49
REMARK   17  A    between atoms: _52  and  _54
REMARK   18  A    between atoms: _54  and  _55
REMARK   19  A    between atoms: _57  and  _59
REMARK   20  A    between atoms: _59  and  _60
REMARK   21  A    between atoms: _59  and  _62
REMARK   22  A    between atoms: _62  and  _63
REMARK   23  A    between atoms: _66  and  _68
REMARK   24  A    between atoms: _68  and  _69
REMARK   25  A    between atoms: _68  and  _71
REMARK   26  A    between atoms: _71  and  _72
REMARK   27  A    between atoms: _78  and  _80
REMARK   28  A    between atoms: _80  and  _81
REMARK   29  A    between atoms: _80  and  _83
REMARK   30  A    between atoms: _83  and  _84
REMARK   31  A    between atoms: _87  and  _89
REMARK   32  A    between atoms: _89  and  _90
REMARK   33  A    between atoms: _89  and  _92
REMARK   34  A    between atoms: _92  and  _93
REMARK   35  A    between atoms: _93  and  _94
REMARK   36  A    between atoms: _99  and  _101
REMARK   37  A    between atoms: _101  and  _102
REMARK   38  A    between atoms: _101  and  _104
REMARK   39  A    between atoms: _104  and  _105
REMARK   40  A    between atoms: _108  and  _110
REMARK   41  A    between atoms: _110  and  _111
REMARK   42  A    between atoms: _110  and  _113
REMARK   43  A    between atoms: _116  and  _118
REMARK   44  A    between atoms: _118  and  _119
REMARK   45  A    between atoms: _122  and  _124
REMARK   46  A    between atoms: _124  and  _125
REMARK   47  A    between atoms: _124  and  _127
REMARK   48  A    between atoms: _127  and  _128
REMARK   49  A    between atoms: _128  and  _129
REMARK   50  A    between atoms: _132  and  _134
REMARK   51  A    between atoms: _134  and  _135
REMARK   52  A    between atoms: _134  and  _137
REMARK   53  A    between atoms: _137  and  _138
REMARK   54  A    between atoms: _144  and  _146
REMARK   55  A    between atoms: _146  and  _147
REMARK   56  A    between atoms: _146  and  _149
REMARK   57  A    between atoms: _149  and  _150
REMARK   58  A    between atoms: _152  and  _154
REMARK   59  A    between atoms: _154  and  _155
REMARK   60  A    between atoms: _154  and  _157
REMARK   61  A    between atoms: _157  and  _158
REMARK   62  A    between atoms: _160  and  _162
REMARK   63  A    between atoms: _162  and  _163
REMARK   64  A    between atoms: _166  and  _168
REMARK   65  A    between atoms: _168  and  _169
REMARK   66  A    between atoms: _168  and  _171
REMARK   67  A    between atoms: _171  and  _172
REMARK   68  A    between atoms: _175  and  _177
REMARK   69  A    between atoms: _177  and  _178
REMARK   70  A    between atoms: _181  and  _183
REMARK   71  A    between atoms: _183  and  _184
REMARK   72  A    between atoms: _183  and  _186
REMARK   73  A    between atoms: _186  and  _187
REMARK   74  A    between atoms: _187  and  _188
REMARK   75  A    between atoms: _188  and  _189
REMARK   76  A    between atoms: _189  and  _190
REMARK   77  A    between atoms: _194  and  _196
REMARK   78  A    between atoms: _196  and  _197
REMARK   79  A    between atoms: _199  and  _201
REMARK   80  A    between atoms: _201  and  _202
REMARK   81  A    between atoms: _201  and  _204
REMARK   82  A    between atoms: _204  and  _205
REMARK   83  A    between atoms: _205  and  _206
REMARK   84  A    between atoms: _206  and  _207
REMARK   85  A    between atoms: _216  and  _218
REMARK   86  A    between atoms: _218  and  _219
REMARK   87  A    between atoms: _218  and  _221
REMARK   88  A    between atoms: _224  and  _226
REMARK   89  A    between atoms: _226  and  _227
REMARK   90  A    between atoms: _226  and  _229
REMARK   91  A    between atoms: _229  and  _230
REMARK   92  A    between atoms: _230  and  _231
REMARK   93  A    between atoms: _231  and  _232
REMARK   94  A    between atoms: _241  and  _243
REMARK   95  A    between atoms: _243  and  _244
REMARK   96  A    between atoms: _243  and  _246
REMARK   97  A    between atoms: _246  and  _247
REMARK   98  A    between atoms: _250  and  _252
REMARK   99  A    between atoms: _252  and  _253
REMARK  100  A    between atoms: _252  and  _255
REMARK  101  A    between atoms: _255  and  _256
REMARK  102  A    between atoms: _259  and  _261
REMARK  103  A    between atoms: _261  and  _262
REMARK  104  A    between atoms: _261  and  _264
REMARK  105  A    between atoms: _267  and  _269
REMARK  106  A    between atoms: _269  and  _270
REMARK  107  A    between atoms: _273  and  _275
REMARK  108  A    between atoms: _275  and  _276
REMARK  109  A    between atoms: _275  and  _278
REMARK  110  A    between atoms: _278  and  _279
REMARK  111  A    between atoms: _282  and  _284
REMARK  112  A    between atoms: _284  and  _285
REMARK  113  A    between atoms: _284  and  _287
REMARK  114  A    between atoms: _287  and  _288
REMARK  115  A    between atoms: _288  and  _289
REMARK  116  A    between atoms: _291  and  _293
REMARK  117  A    between atoms: _293  and  _294
REMARK  118  A    between atoms: _293  and  _296
REMARK  119  A    between atoms: _299  and  _301
REMARK  120  A    between atoms: _301  and  _302
REMARK  121  A    between atoms: _304  and  _306
REMARK  122  A    between atoms: _306  and  _307
REMARK  123  A    between atoms: _306  and  _309
REMARK  124  A    between atoms: _309  and  _310
REMARK  125  A    between atoms: _313  and  _315
REMARK  126  A    between atoms: _315  and  _316
REMARK  127  A    between atoms: _315  and  _318
REMARK  128  A    between atoms: _318  and  _319
REMARK  129  A    between atoms: _325  and  _327
REMARK  130  A    between atoms: _327  and  _328
REMARK  131  A    between atoms: _327  and  _330
REMARK  132  A    between atoms: _330  and  _331
REMARK  133  A    between atoms: _331  and  _332
REMARK  134  A    between atoms: _334  and  _336
REMARK  135  A    between atoms: _336  and  _337
REMARK  136  A    between atoms: _336  and  _339
REMARK  137  A    between atoms: _339  and  _340
REMARK  138  A    between atoms: _340  and  _341
REMARK  139  A    between atoms: _341  and  _342
REMARK  140  A    between atoms: _342  and  _343
REMARK  141  A    between atoms: _347  and  _349
REMARK  142  A    between atoms: _349  and  _350
REMARK  143  A    between atoms: _349  and  _352
REMARK  144  A    between atoms: _352  and  _353
REMARK  145  A    between atoms: _358  and  _359
REMARK  146  A    between atoms: _361  and  _363
REMARK  147  A    between atoms: _363  and  _364
REMARK  148  A    between atoms: _363  and  _366
REMARK  149  A    between atoms: _366  and  _367
REMARK  150  A    between atoms: _377  and  _379
REMARK  151  A    between atoms: _379  and  _380
REMARK  152  A    between atoms: _382  and  _384
REMARK  153  A    between atoms: _384  and  _385
REMARK  154  A    between atoms: _384  and  _387
REMARK  155  A    between atoms: _387  and  _388
REMARK  156  A    between atoms: _394  and  _396
REMARK  157  A    between atoms: _396  and  _397
REMARK  158  A    between atoms: _396  and  _399
REMARK  159  A    between atoms: _399  and  _400
REMARK  160  A    between atoms: _403  and  _405
REMARK  161  A    between atoms: _405  and  _406
REMARK  162  A    between atoms: _405  and  _408
REMARK  163  A    between atoms: _408  and  _409
REMARK  164  A    between atoms: _409  and  _410
REMARK  165  A    between atoms: _415  and  _417
REMARK  166  A    between atoms: _417  and  _418
REMARK  167  A    between atoms: _417  and  _420
REMARK  168  A    between atoms: _420  and  _421
REMARK  169  A    between atoms: _421  and  _422
REMARK  170  A    between atoms: _422  and  _423
REMARK  171  A    between atoms: _423  and  _424
REMARK  172  A    between atoms: _428  and  _430
REMARK  173  A    between atoms: _430  and  _431
REMARK  174  A    between atoms: _433  and  _435
REMARK  175  A    between atoms: _435  and  _436
REMARK  176  A    between atoms: _435  and  _438
REMARK  177  A    between atoms: _438  and  _439
REMARK  178  A    between atoms: _442  and  _444
REMARK  179  A    between atoms: _444  and  _445
REMARK  180  A    between atoms: _444  and  _447
REMARK  181  A    between atoms: _447  and  _448
REMARK  182  A    between atoms: _451  and  _453
REMARK  183  A    between atoms: _453  and  _454
REMARK  184  A    between atoms: _453  and  _456
REMARK  185  A    between atoms: _456  and  _457
REMARK  186  A    between atoms: _462  and  _464
REMARK  187  A    between atoms: _464  and  _465
REMARK  188  A    between atoms: _464  and  _467
REMARK  189  A    between atoms: _467  and  _468
REMARK  190  A    between atoms: _478  and  _480
REMARK  191  A    between atoms: _480  and  _481
REMARK  192  A    between atoms: _480  and  _483
REMARK  193  A    between atoms: _483  and  _484
REMARK  194  A    between atoms: _484  and  _485
REMARK  195  A    between atoms: _490  and  _492
REMARK  196  A    between atoms: _492  and  _493
REMARK  197  A    between atoms: _492  and  _495
REMARK  198  A    between atoms: _495  and  _496
REMARK  199  A    between atoms: _501  and  _502
REMARK  200  A    between atoms: _504  and  _506
REMARK  201  A    between atoms: _506  and  _507
REMARK  202  A    between atoms: _506  and  _509
REMARK  203  A    between atoms: _509  and  _510
REMARK  204  A    between atoms: _512  and  _514
REMARK  205  A    between atoms: _514  and  _515
REMARK  206  A    between atoms: _514  and  _517
REMARK  207  A    between atoms: _517  and  _518
REMARK  208  A    between atoms: _518  and  _519
REMARK  209  A    between atoms: _519  and  _520
REMARK  210  A    between atoms: _529  and  _531
REMARK  211  A    between atoms: _531  and  _532
REMARK  212  A    between atoms: _531  and  _534
REMARK  213  A    between atoms: _534  and  _535
REMARK  214  A    between atoms: _540  and  _541
REMARK  215  A    between atoms: _543  and  _545
REMARK  216  A    between atoms: _545  and  _546
REMARK  217  A    between atoms: _545  and  _548
REMARK  218  A    between atoms: _548  and  _549
REMARK  219  A    between atoms: _551  and  _553
REMARK  220  A    between atoms: _553  and  _554
REMARK  221  A    between atoms: _553  and  _556
REMARK  222  A    between atoms: _556  and  _557
REMARK  223  A    between atoms: _563  and  _565
REMARK  224  A    between atoms: _565  and  _566
REMARK  225  A    between atoms: _565  and  _568
REMARK  226  A    between atoms: _568  and  _569
REMARK                            x       y       z     vdW  Elec       q    Type
REMARK                         _______ _______ _______ _____ _____    ______ ____
ROOT
ATOM      1  O   HOH     1      30.677  18.701  54.189  0.00  0.00    +0.000 OA
ENDROOT
TORSDOF 0
REMARK  Name = ../refined-set-2016/1rbp/1rbp_pocket.pdb
REMARK  226 active torsions:
REMARK  status: ('A' for Active; 'I' for Inactive)
REMARK    1  A    between atoms: _1  and  _3
REMARK    2  A    between atoms: _3  and  _4
REMARK    3  A    between atoms: _3  and  _6
REMARK    4  A    between atoms: _6  and  _7
REMARK    5  A    between atoms: _13  and  _15
REMARK    6  A    between atoms: _15  and  _16
REMARK    7  A    between atoms: _15  and  _18
REMARK    8  A    between atoms: _18  and  _19
REMARK    9  A    between atoms: _29  and  _31
REMARK   10  A    between atoms: _31  and  _32
REMARK   11  A    between atoms: _36  and  _37
REMARK   12  A    between atoms: _42  and  _44
REMARK   13  A    between atoms: _44  and  _45
REMARK   14  A    between atoms: _44  and  _47
REMARK   15  A    between atoms: _47  and  _48
REMARK   16  A    between atoms: _48  and  _49
REMARK   17  A    between atoms: _52  and  _54
REMARK   18  A    between atoms: _54  and  _55
REMARK   19  A    between atoms: _57  and  _59
REMARK   20  A    between atoms: _59  and  _60
REMARK   21  A    between atoms: _59  and  _62
REMARK   22  A    between atoms: _62  and  _63
REMARK   23  A    between atoms: _66  and  _68
REMARK   24  A    between atoms: _68  and  _69
REMARK   25  A    between atoms: _68  and  _71
REMARK   26  A    between atoms: _71  and  _72
REMARK   27  A    between atoms: _78  and  _80
REMARK   28  A    between atoms: _80  and  _81
REMARK   29  A    between atoms: _80  and  _83
REMARK   30  A    between atoms: _83  and  _84
REMARK   31  A    between atoms: _87  and  _89
REMARK   32  A    between atoms: _89  and  _90
REMARK   33  A    between atoms: _89  and  _92
REMARK   34  A    between atoms: _92  and  _93
REMARK   35  A    between atoms: _93  and  _94
REMARK   36  A    between atoms: _99  and  _101
REMARK   37  A    between atoms: _101  and  _102
REMARK   38  A    between atoms: _101  and  _104
REMARK   39  A    between atoms: _104  and  _105
REMARK   40  A    between atoms: _108  and  _110
REMARK   41  A    between atoms: _110  and  _111
REMARK   42  A    between atoms: _110  and  _113
REMARK   43  A    between atoms: _116  and  _118
REMARK   44  A    between atoms: _118  and  _119
REMARK   45  A    between atoms: _122  and  _124
REMARK   46  A    between atoms: _124  and  _125
REMARK   47  A    between atoms: _124  and  _127
REMARK   48  A    between atoms: _127  and  _128
REMARK   49  A    between atoms: _128  and  _129
REMARK   50  A    between atoms: _132  and  _134
REMARK   51  A    between atoms: _134  and  _135
REMARK   52  A    between atoms: _134  and  _137
REMARK   53  A    between atoms: _137  and  _138
REMARK   54  A    between atoms: _144  and  _146
REMARK   55  A    between atoms: _146  and  _147
REMARK   56  A    between atoms: _146  and  _149
REMARK   57  A    between atoms: _149  and  _150
REMARK   58  A    between atoms: _152  and  _154
REMARK   59  A    between atoms: _154  and  _155
REMARK   60  A    between atoms: _154  and  _157
REMARK   61  A    between atoms: _157  and  _158
REMARK   62  A    between atoms: _160  and  _162
REMARK   63  A    between atoms: _162  and  _163
REMARK   64  A    between atoms: _166  and  _168
REMARK   65  A    between atoms: _168  and  _169
REMARK   66  A    between atoms: _168  and  _171
REMARK   67  A    between atoms: _171  and  _172
REMARK   68  A    between atoms: _175  and  _177
REMARK   69  A    between atoms: _177  and  _178
REMARK   70  A    between atoms: _181  and  _183
REMARK   71  A    between atoms: _183  and  _184
REMARK   72  A    between atoms: _183  and  _186
REMARK   73  A    between atoms: _186  and  _187
REMARK   74  A    between atoms: _187  and  _188
REMARK   75  A    between atoms: _188  and  _189
REMARK   76  A    between atoms: _189  and  _190
REMARK   77  A    between atoms: _194  and  _196
REMARK   78  A    between atoms: _196  and  _197
REMARK   79  A    between atoms: _199  and  _201
REMARK   80  A    between atoms: _201  and  _202
REMARK   81  A    between atoms: _201  and  _204
REMARK   82  A    between atoms: _204  and  _205
REMARK   83  A    between atoms: _205  and  _206
REMARK   84  A    between atoms: _206  and  _207
REMARK   85  A    between atoms: _216  and  _218
REMARK   86  A    between atoms: _218  and  _219
REMARK   87  A    between atoms: _218  and  _221
REMARK   88  A    between atoms: _224  and  _226
REMARK   89  A    between atoms: _226  and  _227
REMARK   90  A    between atoms: _226  and  _229
REMARK   91  A    between atoms: _229  and  _230
REMARK   92  A    between atoms: _230  and  _231
REMARK   93  A    between atoms: _231  and  _232
REMARK   94  A    between atoms: _241  and  _243
REMARK   95  A    between atoms: _243  and  _244
REMARK   96  A    between atoms: _243  and  _246
REMARK   97  A    between atoms: _246  and  _247
REMARK   98  A    between atoms: _250  and  _252
REMARK   99  A    between atoms: _252  and  _253
REMARK  100  A    between atoms: _252  and  _255
REMARK  101  A    between atoms: _255  and  _256
REMARK  102  A    between atoms: _259  and  _261
REMARK  103  A    between atoms: _261  and  _262
REMARK  104  A    between atoms: _261  and  _264
REMARK  105  A    between atoms: _267  and  _269
REMARK  106  A    between atoms: _269  and  _270
REMARK  107  A    between atoms: _273  and  _275
REMARK  108  A    between atoms: _275  and  _276
REMARK  109  A    between atoms: _275  and  _278
REMARK  110  A    between atoms: _278  and  _279
REMARK  111  A    between atoms: _282  and  _284
REMARK  112  A    between atoms: _284  and  _285
REMARK  113  A    between atoms: _284  and  _287
REMARK  114  A    between atoms: _287  and  _288
REMARK  115  A    between atoms: _288  and  _289
REMARK  116  A    between atoms: _291  and  _293
REMARK  117  A    between atoms: _293  and  _294
REMARK  118  A    between atoms: _293  and  _296
REMARK  119  A    between atoms: _299  and  _301
REMARK  120  A    between atoms: _301  and  _302
REMARK  121  A    between atoms: _304  and  _306
REMARK  122  A    between atoms: _306  and  _307
REMARK  123  A    between atoms: _306  and  _309
REMARK  124  A    between atoms: _309  and  _310
REMARK  125  A    between atoms: _313  and  _315
REMARK  126  A    between atoms: _315  and  _316
REMARK  127  A    between atoms: _315  and  _318
REMARK  128  A    between atoms: _318  and  _319
REMARK  129  A    between atoms: _325  and  _327
REMARK  130  A    between atoms: _327  and  _328
REMARK  131  A    between atoms: _327  and  _330
REMARK  132  A    between atoms: _330  and  _331
REMARK  133  A    between atoms: _331  and  _332
REMARK  134  A    between atoms: _334  and  _336
REMARK  135  A    between atoms: _336  and  _337
REMARK  136  A    between atoms: _336  and  _339
REMARK  137  A    between atoms: _339  and  _340
REMARK  138  A    between atoms: _340  and  _341
REMARK  139  A    between atoms: _341  and  _342
REMARK  140  A    between atoms: _342  and  _343
REMARK  141  A    between atoms: _347  and  _349
REMARK  142  A    between atoms: _349  and  _350
REMARK  143  A    between atoms: _349  and  _352
REMARK  144  A    between atoms: _352  and  _353
REMARK  145  A    between atoms: _358  and  _359
REMARK  146  A    between atoms: _361  and  _363
REMARK  147  A    between atoms: _363  and  _364
REMARK  148  A    between atoms: _363  and  _366
REMARK  149  A    between atoms: _366  and  _367
REMARK  150  A    between atoms: _377  and  _379
REMARK  151  A    between atoms: _379  and  _380
REMARK  152  A    between atoms: _382  and  _384
REMARK  153  A    between atoms: _384  and  _385
REMARK  154  A    between atoms: _384  and  _387
REMARK  155  A    between atoms: _387  and  _388
REMARK  156  A    between atoms: _394  and  _396
REMARK  157  A    between atoms: _396  and  _397
REMARK  158  A    between atoms: _396  and  _399
REMARK  159  A    between atoms: _399  and  _400
REMARK  160  A    between atoms: _403  and  _405
REMARK  161  A    between atoms: _405  and  _406
REMARK  162  A    between atoms: _405  and  _408
REMARK  163  A    between atoms: _408  and  _409
REMARK  164  A    between atoms: _409  and  _410
REMARK  165  A    between atoms: _415  and  _417
REMARK  166  A    between atoms: _417  and  _418
REMARK  167  A    between atoms: _417  and  _420
REMARK  168  A    between atoms: _420  and  _421
REMARK  169  A    between atoms: _421  and  _422
REMARK  170  A    between atoms: _422  and  _423
REMARK  171  A    between atoms: _423  and  _424
REMARK  172  A    between atoms: _428  and  _430
REMARK  173  A    between atoms: _430  and  _431
REMARK  174  A    between atoms: _433  and  _435
REMARK  175  A    between atoms: _435  and  _436
REMARK  176  A    between atoms: _435  and  _438
REMARK  177  A    between atoms: _438  and  _439
REMARK  178  A    between atoms: _442  and  _444
REMARK  179  A    between atoms: _444  and  _445
REMARK  180  A    between atoms: _444  and  _447
REMARK  181  A    between atoms: _447  and  _448
REMARK  182  A    between atoms: _451  and  _453
REMARK  183  A    between atoms: _453  and  _454
REMARK  184  A    between atoms: _453  and  _456
REMARK  185  A    between atoms: _456  and  _457
REMARK  186  A    between atoms: _462  and  _464
REMARK  187  A    between atoms: _464  and  _465
REMARK  188  A    between atoms: _464  and  _467
REMARK  189  A    between atoms: _467  and  _468
REMARK  190  A    between atoms: _478  and  _480
REMARK  191  A    between atoms: _480  and  _481
REMARK  192  A    between atoms: _480  and  _483
REMARK  193  A    between atoms: _483  and  _484
REMARK  194  A    between atoms: _484  and  _485
REMARK  195  A    between atoms: _490  and  _492
REMARK  196  A    between atoms: _492  and  _493
REMARK  197  A    between atoms: _492  and  _495
REMARK  198  A    between atoms: _495  and  _496
REMARK  199  A    between atoms: _501  and  _502
REMARK  200  A    between atoms: _504  and  _506
REMARK  201  A    between atoms: _506  and  _507
REMARK  202  A    between atoms: _506  and  _509
REMARK  203  A    between atoms: _509  and  _510
REMARK  204  A    between atoms: _512  and  _514
REMARK  205  A    between atoms: _514  and  _515
REMARK  206  A    between atoms: _514  and  _517
REMARK  207  A    between atoms: _517  and  _518
REMARK  208  A    between atoms: _518  and  _519
REMARK  209  A    between atoms: _519  and  _520
REMARK  210  A    between atoms: _529  and  _531
REMARK  211  A    between atoms: _531  and  _532
REMARK  212  A    between atoms: _531  and  _534
REMARK  213  A    between atoms: _534  and  _535
REMARK  214  A    between atoms: _540  and  _541
REMARK  215  A    between atoms: _543  and  _545
REMARK  216  A    between atoms: _545  and  _546
REMARK  217  A    between atoms: _545  and  _548
REMARK  218  A    between atoms: _548  and  _549
REMARK  219  A    between atoms: _551  and  _553
REMARK  220  A    between atoms: _553  and  _554
REMARK  221  A    between atoms: _553  and  _556
REMARK  222  A    between atoms: _556  and  _557
REMARK  223  A    between atoms: _563  and  _565
REMARK  224  A    between atoms: _565  and  _566
REMARK  225  A    between atoms: _565  and  _568
REMARK  226  A    between atoms: _568  and  _569
REMARK                            x       y       z     vdW  Elec       q    Type
REMARK                         _______ _______ _______ _____ _____    ______ ____
ROOT
ATOM      1  O   HOH     1      34.823  14.286  58.504  0.00  0.00    +0.000 OA
ENDROOT
TORSDOF 0
REMARK  Name = ../refined-set-2016/1rbp/1rbp_pocket.pdb
REMARK  226 active torsions:
REMARK  status: ('A' for Active; 'I' for Inactive)
REMARK    1  A    between atoms: _1  and  _3
REMARK    2  A    between atoms: _3  and  _4
REMARK    3  A    between atoms: _3  and  _6
REMARK    4  A    between atoms: _6  and  _7
REMARK    5  A    between atoms: _13  and  _15
REMARK    6  A    between atoms: _15  and  _16
REMARK    7  A    between atoms: _15  and  _18
REMARK    8  A    between atoms: _18  and  _19
REMARK    9  A    between atoms: _29  and  _31
REMARK   10  A    between atoms: _31  and  _32
REMARK   11  A    between atoms: _36  and  _37
REMARK   12  A    between atoms: _42  and  _44
REMARK   13  A    between atoms: _44  and  _45
REMARK   14  A    between atoms: _44  and  _47
REMARK   15  A    between atoms: _47  and  _48
REMARK   16  A    between atoms: _48  and  _49
REMARK   17  A    between atoms: _52  and  _54
REMARK   18  A    between atoms: _54  and  _55
REMARK   19  A    between atoms: _57  and  _59
REMARK   20  A    between atoms: _59  and  _60
REMARK   21  A    between atoms: _59  and  _62
REMARK   22  A    between atoms: _62  and  _63
REMARK   23  A    between atoms: _66  and  _68
REMARK   24  A    between atoms: _68  and  _69
REMARK   25  A    between atoms: _68  and  _71
REMARK   26  A    between atoms: _71  and  _72
REMARK   27  A    between atoms: _78  and  _80
REMARK   28  A    between atoms: _80  and  _81
REMARK   29  A    between atoms: _80  and  _83
REMARK   30  A    between atoms: _83  and  _84
REMARK   31  A    between atoms: _87  and  _89
REMARK   32  A    between atoms: _89  and  _90
REMARK   33  A    between atoms: _89  and  _92
REMARK   34  A    between atoms: _92  and  _93
REMARK   35  A    between atoms: _93  and  _94
REMARK   36  A    between atoms: _99  and  _101
REMARK   37  A    between atoms: _101  and  _102
REMARK   38  A    between atoms: _101  and  _104
REMARK   39  A    between atoms: _104  and  _105
REMARK   40  A    between atoms: _108  and  _110
REMARK   41  A    between atoms: _110  and  _111
REMARK   42  A    between atoms: _110  and  _113
REMARK   43  A    between atoms: _116  and  _118
REMARK   44  A    between atoms: _118  and  _119
REMARK   45  A    between atoms: _122  and  _124
REMARK   46  A    between atoms: _124  and  _125
REMARK   47  A    between atoms: _124  and  _127
REMARK   48  A    between atoms: _127  and  _128
REMARK   49  A    between atoms: _128  and  _129
REMARK   50  A    between atoms: _132  and  _134
REMARK   51  A    between atoms: _134  and  _135
REMARK   52  A    between atoms: _134  and  _137
REMARK   53  A    between atoms: _137  and  _138
REMARK   54  A    between atoms: _144  and  _146
REMARK   55  A    between atoms: _146  and  _147
REMARK   56  A    between atoms: _146  and  _149
REMARK   57  A    between atoms: _149  and  _150
REMARK   58  A    between atoms: _152  and  _154
REMARK   59  A    between atoms: _154  and  _155
REMARK   60  A    between atoms: _154  and  _157
REMARK   61  A    between atoms: _157  and  _158
REMARK   62  A    between atoms: _160  and  _162
REMARK   63  A    between atoms: _162  and  _163
REMARK   64  A    between atoms: _166  and  _168
REMARK   65  A    between atoms: _168  and  _169
REMARK   66  A    between atoms: _168  and  _171
REMARK   67  A    between atoms: _171  and  _172
REMARK   68  A    between atoms: _175  and  _177
REMARK   69  A    between atoms: _177  and  _178
REMARK   70  A    between atoms: _181  and  _183
REMARK   71  A    between atoms: _183  and  _184
REMARK   72  A    between atoms: _183  and  _186
REMARK   73  A    between atoms: _186  and  _187
REMARK   74  A    between atoms: _187  and  _188
REMARK   75  A    between atoms: _188  and  _189
REMARK   76  A    between atoms: _189  and  _190
REMARK   77  A    between atoms: _194  and  _196
REMARK   78  A    between atoms: _196  and  _197
REMARK   79  A    between atoms: _199  and  _201
REMARK   80  A    between atoms: _201  and  _202
REMARK   81  A    between atoms: _201  and  _204
REMARK   82  A    between atoms: _204  and  _205
REMARK   83  A    between atoms: _205  and  _206
REMARK   84  A    between atoms: _206  and  _207
REMARK   85  A    between atoms: _216  and  _218
REMARK   86  A    between atoms: _218  and  _219
REMARK   87  A    between atoms: _218  and  _221
REMARK   88  A    between atoms: _224  and  _226
REMARK   89  A    between atoms: _226  and  _227
REMARK   90  A    between atoms: _226  and  _229
REMARK   91  A    between atoms: _229  and  _230
REMARK   92  A    between atoms: _230  and  _231
REMARK   93  A    between atoms: _231  and  _232
REMARK   94  A    between atoms: _241  and  _243
REMARK   95  A    between atoms: _243  and  _244
REMARK   96  A    between atoms: _243  and  _246
REMARK   97  A    between atoms: _246  and  _247
REMARK   98  A    between atoms: _250  and  _252
REMARK   99  A    between atoms: _252  and  _253
REMARK  100  A    between atoms: _252  and  _255
REMARK  101  A    between atoms: _255  and  _256
REMARK  102  A    between atoms: _259  and  _261
REMARK  103  A    between atoms: _261  and  _262
REMARK  104  A    between atoms: _261  and  _264
REMARK  105  A    between atoms: _267  and  _269
REMARK  106  A    between atoms: _269  and  _270
REMARK  107  A    between atoms: _273  and  _275
REMARK  108  A    between atoms: _275  and  _276
REMARK  109  A    between atoms: _275  and  _278
REMARK  110  A    between atoms: _278  and  _279
REMARK  111  A    between atoms: _282  and  _284
REMARK  112  A    between atoms: _284  and  _285
REMARK  113  A    between atoms: _284  and  _287
REMARK  114  A    between atoms: _287  and  _288
REMARK  115  A    between atoms: _288  and  _289
REMARK  116  A    between atoms: _291  and  _293
REMARK  117  A    between atoms: _293  and  _294
REMARK  118  A    between atoms: _293  and  _296
REMARK  119  A    between atoms: _299  and  _301
REMARK  120  A    between atoms: _301  and  _302
REMARK  121  A    between atoms: _304  and  _306
REMARK  122  A    between atoms: _306  and  _307
REMARK  123  A    between atoms: _306  and  _309
REMARK  124  A    between atoms: _309  and  _310
REMARK  125  A    between atoms: _313  and  _315
REMARK  126  A    between atoms: _315  and  _316
REMARK  127  A    between atoms: _315  and  _318
REMARK  128  A    between atoms: _318  and  _319
REMARK  129  A    between atoms: _325  and  _327
REMARK  130  A    between atoms: _327  and  _328
REMARK  131  A    between atoms: _327  and  _330
REMARK  132  A    between atoms: _330  and  _331
REMARK  133  A    between atoms: _331  and  _332
REMARK  134  A    between atoms: _334  and  _336
REMARK  135  A    between atoms: _336  and  _337
REMARK  136  A    between atoms: _336  and  _339
REMARK  137  A    between atoms: _339  and  _340
REMARK  138  A    between atoms: _340  and  _341
REMARK  139  A    between atoms: _341  and  _342
REMARK  140  A    between atoms: _342  and  _343
REMARK  141  A    between atoms: _347  and  _349
REMARK  142  A    between atoms: _349  and  _350
REMARK  143  A    between atoms: _349  and  _352
REMARK  144  A    between atoms: _352  and  _353
REMARK  145  A    between atoms: _358  and  _359
REMARK  146  A    between atoms: _361  and  _363
REMARK  147  A    between atoms: _363  and  _364
REMARK  148  A    between atoms: _363  and  _366
REMARK  149  A    between atoms: _366  and  _367
REMARK  150  A    between atoms: _377  and  _379
REMARK  151  A    between atoms: _379  and  _380
REMARK  152  A    between atoms: _382  and  _384
REMARK  153  A    between atoms: _384  and  _385
REMARK  154  A    between atoms: _384  and  _387
REMARK  155  A    between atoms: _387  and  _388
REMARK  156  A    between atoms: _394  and  _396
REMARK  157  A    between atoms: _396  and  _397
REMARK  158  A    between atoms: _396  and  _399
REMARK  159  A    between atoms: _399  and  _400
REMARK  160  A    between atoms: _403  and  _405
REMARK  161  A    between atoms: _405  and  _406
REMARK  162  A    between atoms: _405  and  _408
REMARK  163  A    between atoms: _408  and  _409
REMARK  164  A    between atoms: _409  and  _410
REMARK  165  A    between atoms: _415  and  _417
REMARK  166  A    between atoms: _417  and  _418
REMARK  167  A    between atoms: _417  and  _420
REMARK  168  A    between atoms: _420  and  _421
REMARK  169  A    between atoms: _421  and  _422
REMARK  170  A    between atoms: _422  and  _423
REMARK  171  A    between atoms: _423  and  _424
REMARK  172  A    between atoms: _428  and  _430
REMARK  173  A    between atoms: _430  and  _431
REMARK  174  A    between atoms: _433  and  _435
REMARK  175  A    between atoms: _435  and  _436
REMARK  176  A    between atoms: _435  and  _438
REMARK  177  A    between atoms: _438  and  _439
REMARK  178  A    between atoms: _442  and  _444
REMARK  179  A    between atoms: _444  and  _445
REMARK  180  A    between atoms: _444  and  _447
REMARK  181  A    between atoms: _447  and  _448
REMARK  182  A    between atoms: _451  and  _453
REMARK  183  A    between atoms: _453  and  _454
REMARK  184  A    between atoms: _453  and  _456
REMARK  185  A    between atoms: _456  and  _457
REMARK  186  A    between atoms: _462  and  _464
REMARK  187  A    between atoms: _464  and  _465
REMARK  188  A    between atoms: _464  and  _467
REMARK  189  A    between atoms: _467  and  _468
REMARK  190  A    between atoms: _478  and  _480
REMARK  191  A    between atoms: _480  and  _481
REMARK  192  A    between atoms: _480  and  _483
REMARK  193  A    between atoms: _483  and  _484
REMARK  194  A    between atoms: _484  and  _485
REMARK  195  A    between atoms: _490  and  _492
REMARK  196  A    between atoms: _492  and  _493
REMARK  197  A    between atoms: _492  and  _495
REMARK  198  A    between atoms: _495  and  _496
REMARK  199  A    between atoms: _501  and  _502
REMARK  200  A    between atoms: _504  and  _506
REMARK  201  A    between atoms: _506  and  _507
REMARK  202  A    between atoms: _506  and  _509
REMARK  203  A    between atoms: _509  and  _510
REMARK  204  A    between atoms: _512  and  _514
REMARK  205  A    between atoms: _514  and  _515
REMARK  206  A    between atoms: _514  and  _517
REMARK  207  A    between atoms: _517  and  _518
REMARK  208  A    between atoms: _518  and  _519
REMARK  209  A    between atoms: _519  and  _520
REMARK  210  A    between atoms: _529  and  _531
REMARK  211  A    between atoms: _531  and  _532
REMARK  212  A    between atoms: _531  and  _534
REMARK  213  A    between atoms: _534  and  _535
REMARK  214  A    between atoms: _540  and  _541
REMARK  215  A    between atoms: _543  and  _545
REMARK  216  A    between atoms: _545  and  _546
REMARK  217  A    between atoms: _545  and  _548
REMARK  218  A    between atoms: _548  and  _549
REMARK  219  A    between atoms: _551  and  _553
REMARK  220  A    between atoms: _553  and  _554
REMARK  221  A    between atoms: _553  and  _556
REMARK  222  A    between atoms: _556  and  _557
REMARK  223  A    between atoms: _563  and  _565
REMARK  224  A    between atoms: _565  and  _566
REMARK  225  A    between atoms: _565  and  _568
REMARK  226  A    between atoms: _568  and  _569
REMARK                            x       y       z     vdW  Elec       q    Type
REMARK                         _______ _______ _______ _____ _____    ______ ____
ROOT
ATOM      1  O   HOH     1      31.486  17.132  59.901  0.00  0.00    +0.000 OA
ENDROOT
TORSDOF 0
REMARK  Name = ../refined-set-2016/1rbp/1rbp_pocket.pdb
REMARK  226 active torsions:
REMARK  status: ('A' for Active; 'I' for Inactive)
REMARK    1  A    between atoms: _1  and  _3
REMARK    2  A    between atoms: _3  and  _4
REMARK    3  A    between atoms: _3  and  _6
REMARK    4  A    between atoms: _6  and  _7
REMARK    5  A    between atoms: _13  and  _15
REMARK    6  A    between atoms: _15  and  _16
REMARK    7  A    between atoms: _15  and  _18
REMARK    8  A    between atoms: _18  and  _19
REMARK    9  A    between atoms: _29  and  _31
REMARK   10  A    between atoms: _31  and  _32
REMARK   11  A    between atoms: _36  and  _37
REMARK   12  A    between atoms: _42  and  _44
REMARK   13  A    between atoms: _44  and  _45
REMARK   14  A    between atoms: _44  and  _47
REMARK   15  A    between atoms: _47  and  _48
REMARK   16  A    between atoms: _48  and  _49
REMARK   17  A    between atoms: _52  and  _54
REMARK   18  A    between atoms: _54  and  _55
REMARK   19  A    between atoms: _57  and  _59
REMARK   20  A    between atoms: _59  and  _60
REMARK   21  A    between atoms: _59  and  _62
REMARK   22  A    between atoms: _62  and  _63
REMARK   23  A    between atoms: _66  and  _68
REMARK   24  A    between atoms: _68  and  _69
REMARK   25  A    between atoms: _68  and  _71
REMARK   26  A    between atoms: _71  and  _72
REMARK   27  A    between atoms: _78  and  _80
REMARK   28  A    between atoms: _80  and  _81
REMARK   29  A    between atoms: _80  and  _83
REMARK   30  A    between atoms: _83  and  _84
REMARK   31  A    between atoms: _87  and  _89
REMARK   32  A    between atoms: _89  and  _90
REMARK   33  A    between atoms: _89  and  _92
REMARK   34  A    between atoms: _92  and  _93
REMARK   35  A    between atoms: _93  and  _94
REMARK   36  A    between atoms: _99  and  _101
REMARK   37  A    between atoms: _101  and  _102
REMARK   38  A    between atoms: _101  and  _104
REMARK   39  A    between atoms: _104  and  _105
REMARK   40  A    between atoms: _108  and  _110
REMARK   41  A    between atoms: _110  and  _111
REMARK   42  A    between atoms: _110  and  _113
REMARK   43  A    between atoms: _116  and  _118
REMARK   44  A    between atoms: _118  and  _119
REMARK   45  A    between atoms: _122  and  _124
REMARK   46  A    between atoms: _124  and  _125
REMARK   47  A    between atoms: _124  and  _127
REMARK   48  A    between atoms: _127  and  _128
REMARK   49  A    between atoms: _128  and  _129
REMARK   50  A    between atoms: _132  and  _134
REMARK   51  A    between atoms: _134  and  _135
REMARK   52  A    between atoms: _134  and  _137
REMARK   53  A    between atoms: _137  and  _138
REMARK   54  A    between atoms: _144  and  _146
REMARK   55  A    between atoms: _146  and  _147
REMARK   56  A    between atoms: _146  and  _149
REMARK   57  A    between atoms: _149  and  _150
REMARK   58  A    between atoms: _152  and  _154
REMARK   59  A    between atoms: _154  and  _155
REMARK   60  A    between atoms: _154  and  _157
REMARK   61  A    between atoms: _157  and  _158
REMARK   62  A    between atoms: _160  and  _162
REMARK   63  A    between atoms: _162  and  _163
REMARK   64  A    between atoms: _166  and  _168
REMARK   65  A    between atoms: _168  and  _169
REMARK   66  A    between atoms: _168  and  _171
REMARK   67  A    between atoms: _171  and  _172
REMARK   68  A    between atoms: _175  and  _177
REMARK   69  A    between atoms: _177  and  _178
REMARK   70  A    between atoms: _181  and  _183
REMARK   71  A    between atoms: _183  and  _184
REMARK   72  A    between atoms: _183  and  _186
REMARK   73  A    between atoms: _186  and  _187
REMARK   74  A    between atoms: _187  and  _188
REMARK   75  A    between atoms: _188  and  _189
REMARK   76  A    between atoms: _189  and  _190
REMARK   77  A    between atoms: _194  and  _196
REMARK   78  A    between atoms: _196  and  _197
REMARK   79  A    between atoms: _199  and  _201
REMARK   80  A    between atoms: _201  and  _202
REMARK   81  A    between atoms: _201  and  _204
REMARK   82  A    between atoms: _204  and  _205
REMARK   83  A    between atoms: _205  and  _206
REMARK   84  A    between atoms: _206  and  _207
REMARK   85  A    between atoms: _216  and  _218
REMARK   86  A    between atoms: _218  and  _219
REMARK   87  A    between atoms: _218  and  _221
REMARK   88  A    between atoms: _224  and  _226
REMARK   89  A    between atoms: _226  and  _227
REMARK   90  A    between atoms: _226  and  _229
REMARK   91  A    between atoms: _229  and  _230
REMARK   92  A    between atoms: _230  and  _231
REMARK   93  A    between atoms: _231  and  _232
REMARK   94  A    between atoms: _241  and  _243
REMARK   95  A    between atoms: _243  and  _244
REMARK   96  A    between atoms: _243  and  _246
REMARK   97  A    between atoms: _246  and  _247
REMARK   98  A    between atoms: _250  and  _252
REMARK   99  A    between atoms: _252  and  _253
REMARK  100  A    between atoms: _252  and  _255
REMARK  101  A    between atoms: _255  and  _256
REMARK  102  A    between atoms: _259  and  _261
REMARK  103  A    between atoms: _261  and  _262
REMARK  104  A    between atoms: _261  and  _264
REMARK  105  A    between atoms: _267  and  _269
REMARK  106  A    between atoms: _269  and  _270
REMARK  107  A    between atoms: _273  and  _275
REMARK  108  A    between atoms: _275  and  _276
REMARK  109  A    between atoms: _275  and  _278
REMARK  110  A    between atoms: _278  and  _279
REMARK  111  A    between atoms: _282  and  _284
REMARK  112  A    between atoms: _284  and  _285
REMARK  113  A    between atoms: _284  and  _287
REMARK  114  A    between atoms: _287  and  _288
REMARK  115  A    between atoms: _288  and  _289
REMARK  116  A    between atoms: _291  and  _293
REMARK  117  A    between atoms: _293  and  _294
REMARK  118  A    between atoms: _293  and  _296
REMARK  119  A    between atoms: _299  and  _301
REMARK  120  A    between atoms: _301  and  _302
REMARK  121  A    between atoms: _304  and  _306
REMARK  122  A    between atoms: _306  and  _307
REMARK  123  A    between atoms: _306  and  _309
REMARK  124  A    between atoms: _309  and  _310
REMARK  125  A    between atoms: _313  and  _315
REMARK  126  A    between atoms: _315  and  _316
REMARK  127  A    between atoms: _315  and  _318
REMARK  128  A    between atoms: _318  and  _319
REMARK  129  A    between atoms: _325  and  _327
REMARK  130  A    between atoms: _327  and  _328
REMARK  131  A    between atoms: _327  and  _330
REMARK  132  A    between atoms: _330  and  _331
REMARK  133  A    between atoms: _331  and  _332
REMARK  134  A    between atoms: _334  and  _336
REMARK  135  A    between atoms: _336  and  _337
REMARK  136  A    between atoms: _336  and  _339
REMARK  137  A    between atoms: _339  and  _340
REMARK  138  A    between atoms: _340  and  _341
REMARK  139  A    between atoms: _341  and  _342
REMARK  140  A    between atoms: _342  and  _343
REMARK  141  A    between atoms: _347  and  _349
REMARK  142  A    between atoms: _349  and  _350
REMARK  143  A    between atoms: _349  and  _352
REMARK  144  A    between atoms: _352  and  _353
REMARK  145  A    between atoms: _358  and  _359
REMARK  146  A    between atoms: _361  and  _363
REMARK  147  A    between atoms: _363  and  _364
REMARK  148  A    between atoms: _363  and  _366
REMARK  149  A    between atoms: _366  and  _367
REMARK  150  A    between atoms: _377  and  _379
REMARK  151  A    between atoms: _379  and  _380
REMARK  152  A    between atoms: _382  and  _384
REMARK  153  A    between atoms: _384  and  _385
REMARK  154  A    between atoms: _384  and  _387
REMARK  155  A    between atoms: _387  and  _388
REMARK  156  A    between atoms: _394  and  _396
REMARK  157  A    between atoms: _396  and  _397
REMARK  158  A    between atoms: _396  and  _399
REMARK  159  A    between atoms: _399  and  _400
REMARK  160  A    between atoms: _403  and  _405
REMARK  161  A    between atoms: _405  and  _406
REMARK  162  A    between atoms: _405  and  _408
REMARK  163  A    between atoms: _408  and  _409
REMARK  164  A    between atoms: _409  and  _410
REMARK  165  A    between atoms: _415  and  _417
REMARK  166  A    between atoms: _417  and  _418
REMARK  167  A    between atoms: _417  and  _420
REMARK  168  A    between atoms: _420  and  _421
REMARK  169  A    between atoms: _421  and  _422
REMARK  170  A    between atoms: _422  and  _423
REMARK  171  A    between atoms: _423  and  _424
REMARK  172  A    between atoms: _428  and  _430
REMARK  173  A    between atoms: _430  and  _431
REMARK  174  A    between atoms: _433  and  _435
REMARK  175  A    between atoms: _435  and  _436
REMARK  176  A    between atoms: _435  and  _438
REMARK  177  A    between atoms: _438  and  _439
REMARK  178  A    between atoms: _442  and  _444
REMARK  179  A    between atoms: _444  and  _445
REMARK  180  A    between atoms: _444  and  _447
REMARK  181  A    between atoms: _447  and  _448
REMARK  182  A    between atoms: _451  and  _453
REMARK  183  A    between atoms: _453  and  _454
REMARK  184  A    between atoms: _453  and  _456
REMARK  185  A    between atoms: _456  and  _457
REMARK  186  A    between atoms: _462  and  _464
REMARK  187  A    between atoms: _464  and  _465
REMARK  188  A    between atoms: _464  and  _467
REMARK  189  A    between atoms: _467  and  _468
REMARK  190  A    between atoms: _478  and  _480
REMARK  191  A    between atoms: _480  and  _481
REMARK  192  A    between atoms: _480  and  _483
REMARK  193  A    between atoms: _483  and  _484
REMARK  194  A    between atoms: _484  and  _485
REMARK  195  A    between atoms: _490  and  _492
REMARK  196  A    between atoms: _492  and  _493
REMARK  197  A    between atoms: _492  and  _495
REMARK  198  A    between atoms: _495  and  _496
REMARK  199  A    between atoms: _501  and  _502
REMARK  200  A    between atoms: _504  and  _506
REMARK  201  A    between atoms: _506  and  _507
REMARK  202  A    between atoms: _506  and  _509
REMARK  203  A    between atoms: _509  and  _510
REMARK  204  A    between atoms: _512  and  _514
REMARK  205  A    between atoms: _514  and  _515
REMARK  206  A    between atoms: _514  and  _517
REMARK  207  A    between atoms: _517  and  _518
REMARK  208  A    between atoms: _518  and  _519
REMARK  209  A    between atoms: _519  and  _520
REMARK  210  A    between atoms: _529  and  _531
REMARK  211  A    between atoms: _531  and  _532
REMARK  212  A    between atoms: _531  and  _534
REMARK  213  A    between atoms: _534  and  _535
REMARK  214  A    between atoms: _540  and  _541
REMARK  215  A    between atoms: _543  and  _545
REMARK  216  A    between atoms: _545  and  _546
REMARK  217  A    between atoms: _545  and  _548
REMARK  218  A    between atoms: _548  and  _549
REMARK  219  A    between atoms: _551  and  _553
REMARK  220  A    between atoms: _553  and  _554
REMARK  221  A    between atoms: _553  and  _556
REMARK  222  A    between atoms: _556  and  _557
REMARK  223  A    between atoms: _563  and  _565
REMARK  224  A    between atoms: _565  and  _566
REMARK  225  A    between atoms: _565  and  _568
REMARK  226  A    between atoms: _568  and  _569
REMARK                            x       y       z     vdW  Elec       q    Type
REMARK                         _______ _______ _______ _____ _____    ______ ____
ROOT
ATOM      1  O   HOH     1      38.342  15.686  56.619  0.00  0.00    +0.000 OA
ENDROOT
TORSDOF 0
REMARK  Name = ../refined-set-2016/1rbp/1rbp_pocket.pdb
REMARK  226 active torsions:
REMARK  status: ('A' for Active; 'I' for Inactive)
REMARK    1  A    between atoms: _1  and  _3
REMARK    2  A    between atoms: _3  and  _4
REMARK    3  A    between atoms: _3  and  _6
REMARK    4  A    between atoms: _6  and  _7
REMARK    5  A    between atoms: _13  and  _15
REMARK    6  A    between atoms: _15  and  _16
REMARK    7  A    between atoms: _15  and  _18
REMARK    8  A    between atoms: _18  and  _19
REMARK    9  A    between atoms: _29  and  _31
REMARK   10  A    between atoms: _31  and  _32
REMARK   11  A    between atoms: _36  and  _37
REMARK   12  A    between atoms: _42  and  _44
REMARK   13  A    between atoms: _44  and  _45
REMARK   14  A    between atoms: _44  and  _47
REMARK   15  A    between atoms: _47  and  _48
REMARK   16  A    between atoms: _48  and  _49
REMARK   17  A    between atoms: _52  and  _54
REMARK   18  A    between atoms: _54  and  _55
REMARK   19  A    between atoms: _57  and  _59
REMARK   20  A    between atoms: _59  and  _60
REMARK   21  A    between atoms: _59  and  _62
REMARK   22  A    between atoms: _62  and  _63
REMARK   23  A    between atoms: _66  and  _68
REMARK   24  A    between atoms: _68  and  _69
REMARK   25  A    between atoms: _68  and  _71
REMARK   26  A    between atoms: _71  and  _72
REMARK   27  A    between atoms: _78  and  _80
REMARK   28  A    between atoms: _80  and  _81
REMARK   29  A    between atoms: _80  and  _83
REMARK   30  A    between atoms: _83  and  _84
REMARK   31  A    between atoms: _87  and  _89
REMARK   32  A    between atoms: _89  and  _90
REMARK   33  A    between atoms: _89  and  _92
REMARK   34  A    between atoms: _92  and  _93
REMARK   35  A    between atoms: _93  and  _94
REMARK   36  A    between atoms: _99  and  _101
REMARK   37  A    between atoms: _101  and  _102
REMARK   38  A    between atoms: _101  and  _104
REMARK   39  A    between atoms: _104  and  _105
REMARK   40  A    between atoms: _108  and  _110
REMARK   41  A    between atoms: _110  and  _111
REMARK   42  A    between atoms: _110  and  _113
REMARK   43  A    between atoms: _116  and  _118
REMARK   44  A    between atoms: _118  and  _119
REMARK   45  A    between atoms: _122  and  _124
REMARK   46  A    between atoms: _124  and  _125
REMARK   47  A    between atoms: _124  and  _127
REMARK   48  A    between atoms: _127  and  _128
REMARK   49  A    between atoms: _128  and  _129
REMARK   50  A    between atoms: _132  and  _134
REMARK   51  A    between atoms: _134  and  _135
REMARK   52  A    between atoms: _134  and  _137
REMARK   53  A    between atoms: _137  and  _138
REMARK   54  A    between atoms: _144  and  _146
REMARK   55  A    between atoms: _146  and  _147
REMARK   56  A    between atoms: _146  and  _149
REMARK   57  A    between atoms: _149  and  _150
REMARK   58  A    between atoms: _152  and  _154
REMARK   59  A    between atoms: _154  and  _155
REMARK   60  A    between atoms: _154  and  _157
REMARK   61  A    between atoms: _157  and  _158
REMARK   62  A    between atoms: _160  and  _162
REMARK   63  A    between atoms: _162  and  _163
REMARK   64  A    between atoms: _166  and  _168
REMARK   65  A    between atoms: _168  and  _169
REMARK   66  A    between atoms: _168  and  _171
REMARK   67  A    between atoms: _171  and  _172
REMARK   68  A    between atoms: _175  and  _177
REMARK   69  A    between atoms: _177  and  _178
REMARK   70  A    between atoms: _181  and  _183
REMARK   71  A    between atoms: _183  and  _184
REMARK   72  A    between atoms: _183  and  _186
REMARK   73  A    between atoms: _186  and  _187
REMARK   74  A    between atoms: _187  and  _188
REMARK   75  A    between atoms: _188  and  _189
REMARK   76  A    between atoms: _189  and  _190
REMARK   77  A    between atoms: _194  and  _196
REMARK   78  A    between atoms: _196  and  _197
REMARK   79  A    between atoms: _199  and  _201
REMARK   80  A    between atoms: _201  and  _202
REMARK   81  A    between atoms: _201  and  _204
REMARK   82  A    between atoms: _204  and  _205
REMARK   83  A    between atoms: _205  and  _206
REMARK   84  A    between atoms: _206  and  _207
REMARK   85  A    between atoms: _216  and  _218
REMARK   86  A    between atoms: _218  and  _219
REMARK   87  A    between atoms: _218  and  _221
REMARK   88  A    between atoms: _224  and  _226
REMARK   89  A    between atoms: _226  and  _227
REMARK   90  A    between atoms: _226  and  _229
REMARK   91  A    between atoms: _229  and  _230
REMARK   92  A    between atoms: _230  and  _231
REMARK   93  A    between atoms: _231  and  _232
REMARK   94  A    between atoms: _241  and  _243
REMARK   95  A    between atoms: _243  and  _244
REMARK   96  A    between atoms: _243  and  _246
REMARK   97  A    between atoms: _246  and  _247
REMARK   98  A    between atoms: _250  and  _252
REMARK   99  A    between atoms: _252  and  _253
REMARK  100  A    between atoms: _252  and  _255
REMARK  101  A    between atoms: _255  and  _256
REMARK  102  A    between atoms: _259  and  _261
REMARK  103  A    between atoms: _261  and  _262
REMARK  104  A    between atoms: _261  and  _264
REMARK  105  A    between atoms: _267  and  _269
REMARK  106  A    between atoms: _269  and  _270
REMARK  107  A    between atoms: _273  and  _275
REMARK  108  A    between atoms: _275  and  _276
REMARK  109  A    between atoms: _275  and  _278
REMARK  110  A    between atoms: _278  and  _279
REMARK  111  A    between atoms: _282  and  _284
REMARK  112  A    between atoms: _284  and  _285
REMARK  113  A    between atoms: _284  and  _287
REMARK  114  A    between atoms: _287  and  _288
REMARK  115  A    between atoms: _288  and  _289
REMARK  116  A    between atoms: _291  and  _293
REMARK  117  A    between atoms: _293  and  _294
REMARK  118  A    between atoms: _293  and  _296
REMARK  119  A    between atoms: _299  and  _301
REMARK  120  A    between atoms: _301  and  _302
REMARK  121  A    between atoms: _304  and  _306
REMARK  122  A    between atoms: _306  and  _307
REMARK  123  A    between atoms: _306  and  _309
REMARK  124  A    between atoms: _309  and  _310
REMARK  125  A    between atoms: _313  and  _315
REMARK  126  A    between atoms: _315  and  _316
REMARK  127  A    between atoms: _315  and  _318
REMARK  128  A    between atoms: _318  and  _319
REMARK  129  A    between atoms: _325  and  _327
REMARK  130  A    between atoms: _327  and  _328
REMARK  131  A    between atoms: _327  and  _330
REMARK  132  A    between atoms: _330  and  _331
REMARK  133  A    between atoms: _331  and  _332
REMARK  134  A    between atoms: _334  and  _336
REMARK  135  A    between atoms: _336  and  _337
REMARK  136  A    between atoms: _336  and  _339
REMARK  137  A    between atoms: _339  and  _340
REMARK  138  A    between atoms: _340  and  _341
REMARK  139  A    between atoms: _341  and  _342
REMARK  140  A    between atoms: _342  and  _343
REMARK  141  A    between atoms: _347  and  _349
REMARK  142  A    between atoms: _349  and  _350
REMARK  143  A    between atoms: _349  and  _352
REMARK  144  A    between atoms: _352  and  _353
REMARK  145  A    between atoms: _358  and  _359
REMARK  146  A    between atoms: _361  and  _363
REMARK  147  A    between atoms: _363  and  _364
REMARK  148  A    between atoms: _363  and  _366
REMARK  149  A    between atoms: _366  and  _367
REMARK  150  A    between atoms: _377  and  _379
REMARK  151  A    between atoms: _379  and  _380
REMARK  152  A    between atoms: _382  and  _384
REMARK  153  A    between atoms: _384  and  _385
REMARK  154  A    between atoms: _384  and  _387
REMARK  155  A    between atoms: _387  and  _388
REMARK  156  A    between atoms: _394  and  _396
REMARK  157  A    between atoms: _396  and  _397
REMARK  158  A    between atoms: _396  and  _399
REMARK  159  A    between atoms: _399  and  _400
REMARK  160  A    between atoms: _403  and  _405
REMARK  161  A    between atoms: _405  and  _406
REMARK  162  A    between atoms: _405  and  _408
REMARK  163  A    between atoms: _408  and  _409
REMARK  164  A    between atoms: _409  and  _410
REMARK  165  A    between atoms: _415  and  _417
REMARK  166  A    between atoms: _417  and  _418
REMARK  167  A    between atoms: _417  and  _420
REMARK  168  A    between atoms: _420  and  _421
REMARK  169  A    between atoms: _421  and  _422
REMARK  170  A    between atoms: _422  and  _423
REMARK  171  A    between atoms: _423  and  _424
REMARK  172  A    between atoms: _428  and  _430
REMARK  173  A    between atoms: _430  and  _431
REMARK  174  A    between atoms: _433  and  _435
REMARK  175  A    between atoms: _435  and  _436
REMARK  176  A    between atoms: _435  and  _438
REMARK  177  A    between atoms: _438  and  _439
REMARK  178  A    between atoms: _442  and  _444
REMARK  179  A    between atoms: _444  and  _445
REMARK  180  A    between atoms: _444  and  _447
REMARK  181  A    between atoms: _447  and  _448
REMARK  182  A    between atoms: _451  and  _453
REMARK  183  A    between atoms: _453  and  _454
REMARK  184  A    between atoms: _453  and  _456
REMARK  185  A    between atoms: _456  and  _457
REMARK  186  A    between atoms: _462  and  _464
REMARK  187  A    between atoms: _464  and  _465
REMARK  188  A    between atoms: _464  and  _467
REMARK  189  A    between atoms: _467  and  _468
REMARK  190  A    between atoms: _478  and  _480
REMARK  191  A    between atoms: _480  and  _481
REMARK  192  A    between atoms: _480  and  _483
REMARK  193  A    between atoms: _483  and  _484
REMARK  194  A    between atoms: _484  and  _485
REMARK  195  A    between atoms: _490  and  _492
REMARK  196  A    between atoms: _492  and  _493
REMARK  197  A    between atoms: _492  and  _495
REMARK  198  A    between atoms: _495  and  _496
REMARK  199  A    between atoms: _501  and  _502
REMARK  200  A    between atoms: _504  and  _506
REMARK  201  A    between atoms: _506  and  _507
REMARK  202  A    between atoms: _506  and  _509
REMARK  203  A    between atoms: _509  and  _510
REMARK  204  A    between atoms: _512  and  _514
REMARK  205  A    between atoms: _514  and  _515
REMARK  206  A    between atoms: _514  and  _517
REMARK  207  A    between atoms: _517  and  _518
REMARK  208  A    between atoms: _518  and  _519
REMARK  209  A    between atoms: _519  and  _520
REMARK  210  A    between atoms: _529  and  _531
REMARK  211  A    between atoms: _531  and  _532
REMARK  212  A    between atoms: _531  and  _534
REMARK  213  A    between atoms: _534  and  _535
REMARK  214  A    between atoms: _540  and  _541
REMARK  215  A    between atoms: _543  and  _545
REMARK  216  A    between atoms: _545  and  _546
REMARK  217  A    between atoms: _545  and  _548
REMARK  218  A    between atoms: _548  and  _549
REMARK  219  A    between atoms: _551  and  _553
REMARK  220  A    between atoms: _553  and  _554
REMARK  221  A    between atoms: _553  and  _556
REMARK  222  A    between atoms: _556  and  _557
REMARK  223  A    between atoms: _563  and  _565
REMARK  224  A    between atoms: _565  and  _566
REMARK  225  A    between atoms: _565  and  _568
REMARK  226  A    between atoms: _568  and  _569
REMARK                            x       y       z     vdW  Elec       q    Type
REMARK                         _______ _______ _______ _____ _____    ______ ____
ROOT
ATOM      1  O   HOH     1      29.834  18.485  57.316  0.00  0.00    +0.000 OA
ENDROOT
TORSDOF 0
