REMARK  Name = ../refined-set-2016/4xtz/4xtz_pocket.pdb
REMARK  235 active torsions:
REMARK  status: ('A' for Active; 'I' for Inactive)
REMARK    1  A    between atoms: _1  and  _3
REMARK    2  A    between atoms: _3  and  _4
REMARK    3  A    between atoms: _3  and  _6
REMARK    4  A    between atoms: _6  and  _7
REMARK    5  A    between atoms: _10  and  _12
REMARK    6  A    between atoms: _12  and  _13
REMARK    7  A    between atoms: _15  and  _17
REMARK    8  A    between atoms: _17  and  _18
REMARK    9  A    between atoms: _17  and  _20
REMARK   10  A    between atoms: _20  and  _21
REMARK   11  A    between atoms: _23  and  _25
REMARK   12  A    between atoms: _25  and  _26
REMARK   13  A    between atoms: _25  and  _28
REMARK   14  A    between atoms: _28  and  _29
REMARK   15  A    between atoms: _32  and  _34
REMARK   16  A    between atoms: _34  and  _35
REMARK   17  A    between atoms: _34  and  _37
REMARK   18  A    between atoms: _37  and  _38
REMARK   19  A    between atoms: _43  and  _45
REMARK   20  A    between atoms: _45  and  _46
REMARK   21  A    between atoms: _49  and  _51
REMARK   22  A    between atoms: _51  and  _52
REMARK   23  A    between atoms: _51  and  _54
REMARK   24  A    between atoms: _54  and  _55
REMARK   25  A    between atoms: _58  and  _60
REMARK   26  A    between atoms: _60  and  _61
REMARK   27  A    between atoms: _60  and  _63
REMARK   28  A    between atoms: _63  and  _64
REMARK   29  A    between atoms: _67  and  _69
REMARK   30  A    between atoms: _69  and  _70
REMARK   31  A    between atoms: _69  and  _72
REMARK   32  A    between atoms: _72  and  _73
REMARK   33  A    between atoms: _76  and  _78
REMARK   34  A    between atoms: _78  and  _79
REMARK   35  A    between atoms: _82  and  _84
REMARK   36  A    between atoms: _84  and  _85
REMARK   37  A    between atoms: _84  and  _87
REMARK   38  A    between atoms: _87  and  _88
REMARK   39  A    between atoms: _88  and  _89
REMARK   40  A    between atoms: _94  and  _96
REMARK   41  A    between atoms: _96  and  _97
REMARK   42  A    between atoms: _96  and  _99
REMARK   43  A    between atoms: _99  and  _100
REMARK   44  A    between atoms: _103  and  _105
REMARK   45  A    between atoms: _105  and  _106
REMARK   46  A    between atoms: _109  and  _111
REMARK   47  A    between atoms: _111  and  _112
REMARK   48  A    between atoms: _114  and  _116
REMARK   49  A    between atoms: _116  and  _117
REMARK   50  A    between atoms: _116  and  _119
REMARK   51  A    between atoms: _119  and  _120
REMARK   52  A    between atoms: _120  and  _121
REMARK   53  A    between atoms: _121  and  _122
REMARK   54  A    between atoms: _131  and  _133
REMARK   55  A    between atoms: _133  and  _134
REMARK   56  A    between atoms: _136  and  _138
REMARK   57  A    between atoms: _138  and  _139
REMARK   58  A    between atoms: _138  and  _141
REMARK   59  A    between atoms: _141  and  _142
REMARK   60  A    between atoms: _142  and  _143
REMARK   61  A    between atoms: _143  and  _144
REMARK   62  A    between atoms: _153  and  _155
REMARK   63  A    between atoms: _155  and  _156
REMARK   64  A    between atoms: _155  and  _158
REMARK   65  A    between atoms: _158  and  _159
REMARK   66  A    between atoms: _164  and  _166
REMARK   67  A    between atoms: _166  and  _167
REMARK   68  A    between atoms: _169  and  _171
REMARK   69  A    between atoms: _171  and  _172
REMARK   70  A    between atoms: _171  and  _174
REMARK   71  A    between atoms: _174  and  _175
REMARK   72  A    between atoms: _175  and  _176
REMARK   73  A    between atoms: _176  and  _177
REMARK   74  A    between atoms: _186  and  _188
REMARK   75  A    between atoms: _188  and  _189
REMARK   76  A    between atoms: _191  and  _193
REMARK   77  A    between atoms: _193  and  _194
REMARK   78  A    between atoms: _193  and  _196
REMARK   79  A    between atoms: _196  and  _197
REMARK   80  A    between atoms: _207  and  _209
REMARK   81  A    between atoms: _209  and  _210
REMARK   82  A    between atoms: _213  and  _215
REMARK   83  A    between atoms: _215  and  _216
REMARK   84  A    between atoms: _219  and  _221
REMARK   85  A    between atoms: _221  and  _222
REMARK   86  A    between atoms: _221  and  _224
REMARK   87  A    between atoms: _224  and  _225
REMARK   88  A    between atoms: _228  and  _230
REMARK   89  A    between atoms: _230  and  _231
REMARK   90  A    between atoms: _230  and  _233
REMARK   91  A    between atoms: _233  and  _234
REMARK   92  A    between atoms: _234  and  _235
REMARK   93  A    between atoms: _240  and  _242
REMARK   94  A    between atoms: _242  and  _243
REMARK   95  A    between atoms: _242  and  _245
REMARK   96  A    between atoms: _245  and  _246
REMARK   97  A    between atoms: _249  and  _251
REMARK   98  A    between atoms: _251  and  _252
REMARK   99  A    between atoms: _251  and  _254
REMARK  100  A    between atoms: _254  and  _255
REMARK  101  A    between atoms: _258  and  _260
REMARK  102  A    between atoms: _260  and  _261
REMARK  103  A    between atoms: _260  and  _263
REMARK  104  A    between atoms: _263  and  _264
REMARK  105  A    between atoms: _267  and  _269
REMARK  106  A    between atoms: _269  and  _270
REMARK  107  A    between atoms: _269  and  _272
REMARK  108  A    between atoms: _272  and  _273
REMARK  109  A    between atoms: _275  and  _277
REMARK  110  A    between atoms: _277  and  _278
REMARK  111  A    between atoms: _277  and  _280
REMARK  112  A    between atoms: _283  and  _285
REMARK  113  A    between atoms: _285  and  _286
REMARK  114  A    between atoms: _285  and  _288
REMARK  115  A    between atoms: _288  and  _289
REMARK  116  A    between atoms: _289  and  _290
REMARK  117  A    between atoms: _290  and  _291
REMARK  118  A    between atoms: _291  and  _292
REMARK  119  A    between atoms: _296  and  _298
REMARK  120  A    between atoms: _298  and  _299
REMARK  121  A    between atoms: _298  and  _301
REMARK  122  A    between atoms: _301  and  _302
REMARK  123  A    between atoms: _313  and  _314
REMARK  124  A    between atoms: _319  and  _321
REMARK  125  A    between atoms: _321  and  _322
REMARK  126  A    between atoms: _321  and  _324
REMARK  127  A    between atoms: _324  and  _325
REMARK  128  A    between atoms: _330  and  _332
REMARK  129  A    between atoms: _332  and  _333
REMARK  130  A    between atoms: _332  and  _335
REMARK  131  A    between atoms: _335  and  _336
REMARK  132  A    between atoms: _339  and  _341
REMARK  133  A    between atoms: _341  and  _342
REMARK  134  A    between atoms: _341  and  _344
REMARK  135  A    between atoms: _347  and  _349
REMARK  136  A    between atoms: _349  and  _350
REMARK  137  A    between atoms: _352  and  _354
REMARK  138  A    between atoms: _354  and  _355
REMARK  139  A    between atoms: _354  and  _357
REMARK  140  A    between atoms: _357  and  _358
REMARK  141  A    between atoms: _358  and  _359
REMARK  142  A    between atoms: _359  and  _360
REMARK  143  A    between atoms: _360  and  _361
REMARK  144  A    between atoms: _365  and  _367
REMARK  145  A    between atoms: _367  and  _368
REMARK  146  A    between atoms: _367  and  _370
REMARK  147  A    between atoms: _370  and  _371
REMARK  148  A    between atoms: _374  and  _376
REMARK  149  A    between atoms: _376  and  _377
REMARK  150  A    between atoms: _380  and  _382
REMARK  151  A    between atoms: _382  and  _383
REMARK  152  A    between atoms: _385  and  _387
REMARK  153  A    between atoms: _387  and  _388
REMARK  154  A    between atoms: _387  and  _390
REMARK  155  A    between atoms: _390  and  _391
REMARK  156  A    between atoms: _394  and  _396
REMARK  157  A    between atoms: _396  and  _397
REMARK  158  A    between atoms: _396  and  _399
REMARK  159  A    between atoms: _399  and  _400
REMARK  160  A    between atoms: _403  and  _405
REMARK  161  A    between atoms: _405  and  _406
REMARK  162  A    between atoms: _409  and  _411
REMARK  163  A    between atoms: _411  and  _412
REMARK  164  A    between atoms: _411  and  _414
REMARK  165  A    between atoms: _414  and  _415
REMARK  166  A    between atoms: _415  and  _416
REMARK  167  A    between atoms: _419  and  _421
REMARK  168  A    between atoms: _421  and  _422
REMARK  169  A    between atoms: _421  and  _424
REMARK  170  A    between atoms: _427  and  _429
REMARK  171  A    between atoms: _429  and  _430
REMARK  172  A    between atoms: _429  and  _432
REMARK  173  A    between atoms: _432  and  _433
REMARK  174  A    between atoms: _436  and  _438
REMARK  175  A    between atoms: _438  and  _439
REMARK  176  A    between atoms: _441  and  _443
REMARK  177  A    between atoms: _443  and  _444
REMARK  178  A    between atoms: _443  and  _446
REMARK  179  A    between atoms: _449  and  _451
REMARK  180  A    between atoms: _451  and  _452
REMARK  181  A    between atoms: _454  and  _456
REMARK  182  A    between atoms: _456  and  _457
REMARK  183  A    between atoms: _456  and  _459
REMARK  184  A    between atoms: _459  and  _460
REMARK  185  A    between atoms: _463  and  _465
REMARK  186  A    between atoms: _465  and  _466
REMARK  187  A    between atoms: _465  and  _468
REMARK  188  A    between atoms: _468  and  _469
REMARK  189  A    between atoms: _474  and  _476
REMARK  190  A    between atoms: _476  and  _477
REMARK  191  A    between atoms: _476  and  _479
REMARK  192  A    between atoms: _482  and  _484
REMARK  193  A    between atoms: _484  and  _485
REMARK  194  A    between atoms: _484  and  _487
REMARK  195  A    between atoms: _487  and  _488
REMARK  196  A    between atoms: _488  and  _489
REMARK  197  A    between atoms: _494  and  _496
REMARK  198  A    between atoms: _496  and  _497
REMARK  199  A    between atoms: _501  and  _502
REMARK  200  A    between atoms: _507  and  _509
REMARK  201  A    between atoms: _509  and  _510
REMARK  202  A    between atoms: _509  and  _512
REMARK  203  A    between atoms: _512  and  _513
REMARK  204  A    between atoms: _513  and  _514
REMARK  205  A    between atoms: _517  and  _519
REMARK  206  A    between atoms: _519  and  _520
REMARK  207  A    between atoms: _519  and  _522
REMARK  208  A    between atoms: _525  and  _527
REMARK  209  A    between atoms: _527  and  _528
REMARK  210  A    between atoms: _527  and  _530
REMARK  211  A    between atoms: _530  and  _531
REMARK  212  A    between atoms: _535  and  _536
REMARK  213  A    between atoms: _541  and  _543
REMARK  214  A    between atoms: _543  and  _544
REMARK  215  A    between atoms: _543  and  _546
REMARK  216  A    between atoms: _546  and  _547
REMARK  217  A    between atoms: _550  and  _552
REMARK  218  A    between atoms: _552  and  _553
REMARK  219  A    between atoms: _556  and  _558
REMARK  220  A    between atoms: _558  and  _559
REMARK  221  A    between atoms: _558  and  _561
REMARK  222  A    between atoms: _561  and  _562
REMARK  223  A    between atoms: _565  and  _567
REMARK  224  A    between atoms: _567  and  _568
REMARK  225  A    between atoms: _567  and  _570
REMARK  226  A    between atoms: _570  and  _571
REMARK  227  A    between atoms: _573  and  _575
REMARK  228  A    between atoms: _575  and  _576
REMARK  229  A    between atoms: _578  and  _580
REMARK  230  A    between atoms: _580  and  _581
REMARK  231  A    between atoms: _580  and  _583
REMARK  232  A    between atoms: _583  and  _584
REMARK  233  A    between atoms: _587  and  _589
REMARK  234  A    between atoms: _589  and  _590
REMARK  235  A    between atoms: _589  and  _592
REMARK                            x       y       z     vdW  Elec       q    Type
REMARK                         _______ _______ _______ _____ _____    ______ ____
ROOT
ATOM      1  C   THR A   4       1.567 -13.554  17.546  0.00  0.00    +0.243 C 
ATOM      2  O   THR A   4       1.844 -14.728  17.787  0.00  0.00    -0.273 OA
ATOM      3  N   ASN A   5       1.456 -13.077  16.309  0.00  0.00    -0.297 N 
ATOM      4  H   ASN A   5       1.166 -12.089  16.165  0.00  0.00    +0.150 HD
ENDROOT
BRANCH   3   5
ATOM      5  CA  ASN A   5       1.735 -13.920  15.153  0.00  0.00    +0.158 C 
BRANCH   5   6
ATOM      6  C   ASN A   5       3.199 -14.336  15.121  0.00  0.00    +0.241 C 
ATOM      7  N   ALA A   6       4.089 -13.369  15.317  0.00  0.00    -0.297 N 
ATOM      8  H   ALA A   6       3.754 -12.394  15.451  0.00  0.00    +0.150 HD
ATOM      9  O   ASN A   5       3.513 -15.510  14.932  0.00  0.00    -0.273 OA
BRANCH   7  10
ATOM     10  CA  ALA A   6       5.522 -13.636  15.349  0.00  0.00    +0.149 C 
ATOM     11  CB  ALA A   6       6.298 -12.339  15.540  0.00  0.00    +0.031 C 
BRANCH  10  12
ATOM     12  C   ALA A   6       5.877 -14.634  16.449  0.00  0.00    +0.241 C 
ATOM     13  N   ASP A   7       5.211 -14.509  17.593  0.00  0.00    -0.297 N 
ATOM     14  H   ASP A   7       4.478 -13.776  17.673  0.00  0.00    +0.150 HD
ATOM     15  O   ALA A   6       6.731 -15.501  16.259  0.00  0.00    -0.273 OA
BRANCH  13  16
ATOM     16  CA  ASP A   7       5.479 -15.371  18.739  0.00  0.00    +0.160 C 
BRANCH  16  17
ATOM     17  C   ASP A   7       5.131 -16.833  18.465  0.00  0.00    +0.241 C 
ATOM     18  O   ASP A   7       5.914 -17.729  18.782  0.00  0.00    -0.273 OA
ATOM     19  N   LEU A   8       3.960 -17.079  17.883  0.00  0.00    -0.298 N 
ATOM     20  H   LEU A   8       3.331 -16.288  17.638  0.00  0.00    +0.150 HD
BRANCH  19  21
ATOM     21  CA  LEU A   8       3.549 -18.449  17.585  0.00  0.00    +0.137 C 
BRANCH  21  22
ATOM     22  C   LEU A   8       4.370 -19.029  16.438  0.00  0.00    +0.227 C 
ATOM     23  O   LEU A   8       4.645 -20.230  16.408  0.00  0.00    -0.286 OA
ENDBRANCH  21  22
BRANCH  21  24
ATOM     24  CB  LEU A   8       2.055 -18.516  17.254  0.00  0.00    +0.028 C 
BRANCH  24  25
ATOM     25  CG  LEU A   8       1.103 -18.405  18.448  0.00  0.00    +0.002 C 
ATOM     26  CD2 LEU A   8       1.575 -19.279  19.603  0.00  0.00    +0.000 C 
ATOM     27  CD1 LEU A   8      -0.323 -18.765  18.046  0.00  0.00    +0.000 C 
ENDBRANCH  24  25
ENDBRANCH  21  24
ENDBRANCH  19  21
ENDBRANCH  16  17
BRANCH  16  28
ATOM     28  CB  ASP A   7       4.713 -14.879  19.969  0.00  0.00    +0.143 C 
BRANCH  28  29
ATOM     29  CG  ASP A   7       5.226 -13.547  20.484  0.00  0.00    +0.367 C 
ATOM     30  OD2 ASP A   7       4.575 -12.962  21.376  0.00  0.00    -0.246 OA
ATOM     31  OD1 ASP A   7       6.282 -13.088  20.003  0.00  0.00    -0.246 OA
ENDBRANCH  28  29
ENDBRANCH  16  28
ENDBRANCH  13  16
ENDBRANCH  10  12
ENDBRANCH   7  10
ENDBRANCH   5   6
BRANCH   5  32
ATOM     32  CB  ASN A   5       1.364 -13.205  13.853  0.00  0.00    +0.114 C 
BRANCH  32  33
ATOM     33  CG  ASN A   5       0.030 -13.662  13.303  0.00  0.00    +0.222 C 
ATOM     34  OD1 ASN A   5      -0.879 -14.004  14.059  0.00  0.00    -0.275 OA
ATOM     35  ND2 ASN A   5      -0.092 -13.683  11.981  0.00  0.00    -0.329 N 
ATOM     36 HD21 ASN A   5      -0.983 -13.998  11.546  0.00  0.00    +0.145 HD
ATOM     37 HD22 ASN A   5       0.703 -13.385  11.381  0.00  0.00    +0.145 HD
ENDBRANCH  32  33
ENDBRANCH   5  32
ENDBRANCH   3   5
BRANCH   1  38
ATOM     38  CA  THR A   4       1.331 -12.565  18.681  0.00  0.00    +0.176 C 
BRANCH  38  40
ATOM     39  C   SER A   3       3.067 -10.987  18.033  0.00  0.00    +0.243 C 
ATOM     40  N   THR A   4       1.788 -11.227  18.314  0.00  0.00    -0.295 N 
ATOM     41  H   THR A   4       1.101 -10.447  18.271  0.00  0.00    +0.150 HD
ATOM     42  O   SER A   3       3.934 -11.859  18.071  0.00  0.00    -0.273 OA
BRANCH  39  43
ATOM     43  CA  SER A   3       3.434  -9.555  17.663  0.00  0.00    +0.178 C 
BRANCH  43  45
ATOM     44  C   GLY A   2       4.628  -7.732  18.758  0.00  0.00    +0.243 C 
ATOM     45  N   SER A   3       4.431  -9.035  18.591  0.00  0.00    -0.295 N 
ATOM     46  H   SER A   3       5.006  -9.706  19.140  0.00  0.00    +0.150 HD
ATOM     47  O   GLY A   2       3.974  -6.876  18.167  0.00  0.00    -0.273 OA
BRANCH  44  48
ATOM     48  CA  GLY A   2       5.711  -7.339  19.744  0.00  0.00    +0.176 C 
BRANCH  48  51
ATOM     49  C   THR A   1       4.522  -7.699  21.827  0.00  0.00    +0.241 C 
ATOM     50  O   THR A   1       3.738  -6.776  21.599  0.00  0.00    -0.274 OA
ATOM     51  N   GLY A   2       5.527  -8.012  21.016  0.00  0.00    -0.295 N 
ATOM     52  H   GLY A   2       6.196  -8.756  21.299  0.00  0.00    +0.150 HD
BRANCH  49  53
ATOM     53  CA  THR A   1       4.383  -8.541  23.087  0.00  0.00    +0.172 C 
BRANCH  53  54
ATOM     54  N   THR A   1       3.426  -7.925  23.998  0.00  0.00    -0.236 NA
ATOM     55  H   THR A   1       2.715  -7.268  23.618  0.00  0.00    +0.142 HD
ENDBRANCH  53  54
BRANCH  53  56
ATOM     56  CB  THR A   1       3.974  -9.975  22.701  0.00  0.00    +0.135 C 
ATOM     57  CG2 THR A   1       2.794  -9.957  21.740  0.00  0.00    +0.034 C 
BRANCH  56  58
ATOM     58  OG1 THR A   1       5.083 -10.642  22.084  0.00  0.00    -0.383 OA
ATOM     59  HG1 THR A   1       4.817 -11.563  21.837  0.00  0.00    +0.210 HD
ENDBRANCH  56  58
ENDBRANCH  53  56
ENDBRANCH  49  53
ENDBRANCH  48  51
ENDBRANCH  44  48
ENDBRANCH  43  45
BRANCH  43  60
ATOM     60  CB  SER A   3       3.955  -9.491  16.223  0.00  0.00    +0.166 C 
BRANCH  60  61
ATOM     61  OG  SER A   3       3.167 -10.282  15.348  0.00  0.00    -0.380 OA
ATOM     62  H   SER A   3       2.233  -9.953  15.358  0.00  0.00    +0.211 HD
ENDBRANCH  60  61
ENDBRANCH  43  60
ENDBRANCH  39  43
ENDBRANCH  38  40
BRANCH  38  63
ATOM     63  CB  THR A   4      -0.164 -12.586  19.055  0.00  0.00    +0.137 C 
ATOM     64  CG2 THR A   4      -0.424 -11.723  20.277  0.00  0.00    +0.034 C 
BRANCH  63  65
ATOM     65  OG1 THR A   4      -0.944 -12.102  17.955  0.00  0.00    -0.382 OA
ATOM     66  HG1 THR A   4      -0.794 -12.681  17.166  0.00  0.00    +0.210 HD
ENDBRANCH  63  65
ENDBRANCH  38  63
ENDBRANCH   1  38
TORSDOF 28
REMARK  Name = ../refined-set-2016/4xtz/4xtz_pocket.pdb
REMARK  235 active torsions:
REMARK  status: ('A' for Active; 'I' for Inactive)
REMARK    1  A    between atoms: _1  and  _3
REMARK    2  A    between atoms: _3  and  _4
REMARK    3  A    between atoms: _3  and  _6
REMARK    4  A    between atoms: _6  and  _7
REMARK    5  A    between atoms: _10  and  _12
REMARK    6  A    between atoms: _12  and  _13
REMARK    7  A    between atoms: _15  and  _17
REMARK    8  A    between atoms: _17  and  _18
REMARK    9  A    between atoms: _17  and  _20
REMARK   10  A    between atoms: _20  and  _21
REMARK   11  A    between atoms: _23  and  _25
REMARK   12  A    between atoms: _25  and  _26
REMARK   13  A    between atoms: _25  and  _28
REMARK   14  A    between atoms: _28  and  _29
REMARK   15  A    between atoms: _32  and  _34
REMARK   16  A    between atoms: _34  and  _35
REMARK   17  A    between atoms: _34  and  _37
REMARK   18  A    between atoms: _37  and  _38
REMARK   19  A    between atoms: _43  and  _45
REMARK   20  A    between atoms: _45  and  _46
REMARK   21  A    between atoms: _49  and  _51
REMARK   22  A    between atoms: _51  and  _52
REMARK   23  A    between atoms: _51  and  _54
REMARK   24  A    between atoms: _54  and  _55
REMARK   25  A    between atoms: _58  and  _60
REMARK   26  A    between atoms: _60  and  _61
REMARK   27  A    between atoms: _60  and  _63
REMARK   28  A    between atoms: _63  and  _64
REMARK   29  A    between atoms: _67  and  _69
REMARK   30  A    between atoms: _69  and  _70
REMARK   31  A    between atoms: _69  and  _72
REMARK   32  A    between atoms: _72  and  _73
REMARK   33  A    between atoms: _76  and  _78
REMARK   34  A    between atoms: _78  and  _79
REMARK   35  A    between atoms: _82  and  _84
REMARK   36  A    between atoms: _84  and  _85
REMARK   37  A    between atoms: _84  and  _87
REMARK   38  A    between atoms: _87  and  _88
REMARK   39  A    between atoms: _88  and  _89
REMARK   40  A    between atoms: _94  and  _96
REMARK   41  A    between atoms: _96  and  _97
REMARK   42  A    between atoms: _96  and  _99
REMARK   43  A    between atoms: _99  and  _100
REMARK   44  A    between atoms: _103  and  _105
REMARK   45  A    between atoms: _105  and  _106
REMARK   46  A    between atoms: _109  and  _111
REMARK   47  A    between atoms: _111  and  _112
REMARK   48  A    between atoms: _114  and  _116
REMARK   49  A    between atoms: _116  and  _117
REMARK   50  A    between atoms: _116  and  _119
REMARK   51  A    between atoms: _119  and  _120
REMARK   52  A    between atoms: _120  and  _121
REMARK   53  A    between atoms: _121  and  _122
REMARK   54  A    between atoms: _131  and  _133
REMARK   55  A    between atoms: _133  and  _134
REMARK   56  A    between atoms: _136  and  _138
REMARK   57  A    between atoms: _138  and  _139
REMARK   58  A    between atoms: _138  and  _141
REMARK   59  A    between atoms: _141  and  _142
REMARK   60  A    between atoms: _142  and  _143
REMARK   61  A    between atoms: _143  and  _144
REMARK   62  A    between atoms: _153  and  _155
REMARK   63  A    between atoms: _155  and  _156
REMARK   64  A    between atoms: _155  and  _158
REMARK   65  A    between atoms: _158  and  _159
REMARK   66  A    between atoms: _164  and  _166
REMARK   67  A    between atoms: _166  and  _167
REMARK   68  A    between atoms: _169  and  _171
REMARK   69  A    between atoms: _171  and  _172
REMARK   70  A    between atoms: _171  and  _174
REMARK   71  A    between atoms: _174  and  _175
REMARK   72  A    between atoms: _175  and  _176
REMARK   73  A    between atoms: _176  and  _177
REMARK   74  A    between atoms: _186  and  _188
REMARK   75  A    between atoms: _188  and  _189
REMARK   76  A    between atoms: _191  and  _193
REMARK   77  A    between atoms: _193  and  _194
REMARK   78  A    between atoms: _193  and  _196
REMARK   79  A    between atoms: _196  and  _197
REMARK   80  A    between atoms: _207  and  _209
REMARK   81  A    between atoms: _209  and  _210
REMARK   82  A    between atoms: _213  and  _215
REMARK   83  A    between atoms: _215  and  _216
REMARK   84  A    between atoms: _219  and  _221
REMARK   85  A    between atoms: _221  and  _222
REMARK   86  A    between atoms: _221  and  _224
REMARK   87  A    between atoms: _224  and  _225
REMARK   88  A    between atoms: _228  and  _230
REMARK   89  A    between atoms: _230  and  _231
REMARK   90  A    between atoms: _230  and  _233
REMARK   91  A    between atoms: _233  and  _234
REMARK   92  A    between atoms: _234  and  _235
REMARK   93  A    between atoms: _240  and  _242
REMARK   94  A    between atoms: _242  and  _243
REMARK   95  A    between atoms: _242  and  _245
REMARK   96  A    between atoms: _245  and  _246
REMARK   97  A    between atoms: _249  and  _251
REMARK   98  A    between atoms: _251  and  _252
REMARK   99  A    between atoms: _251  and  _254
REMARK  100  A    between atoms: _254  and  _255
REMARK  101  A    between atoms: _258  and  _260
REMARK  102  A    between atoms: _260  and  _261
REMARK  103  A    between atoms: _260  and  _263
REMARK  104  A    between atoms: _263  and  _264
REMARK  105  A    between atoms: _267  and  _269
REMARK  106  A    between atoms: _269  and  _270
REMARK  107  A    between atoms: _269  and  _272
REMARK  108  A    between atoms: _272  and  _273
REMARK  109  A    between atoms: _275  and  _277
REMARK  110  A    between atoms: _277  and  _278
REMARK  111  A    between atoms: _277  and  _280
REMARK  112  A    between atoms: _283  and  _285
REMARK  113  A    between atoms: _285  and  _286
REMARK  114  A    between atoms: _285  and  _288
REMARK  115  A    between atoms: _288  and  _289
REMARK  116  A    between atoms: _289  and  _290
REMARK  117  A    between atoms: _290  and  _291
REMARK  118  A    between atoms: _291  and  _292
REMARK  119  A    between atoms: _296  and  _298
REMARK  120  A    between atoms: _298  and  _299
REMARK  121  A    between atoms: _298  and  _301
REMARK  122  A    between atoms: _301  and  _302
REMARK  123  A    between atoms: _313  and  _314
REMARK  124  A    between atoms: _319  and  _321
REMARK  125  A    between atoms: _321  and  _322
REMARK  126  A    between atoms: _321  and  _324
REMARK  127  A    between atoms: _324  and  _325
REMARK  128  A    between atoms: _330  and  _332
REMARK  129  A    between atoms: _332  and  _333
REMARK  130  A    between atoms: _332  and  _335
REMARK  131  A    between atoms: _335  and  _336
REMARK  132  A    between atoms: _339  and  _341
REMARK  133  A    between atoms: _341  and  _342
REMARK  134  A    between atoms: _341  and  _344
REMARK  135  A    between atoms: _347  and  _349
REMARK  136  A    between atoms: _349  and  _350
REMARK  137  A    between atoms: _352  and  _354
REMARK  138  A    between atoms: _354  and  _355
REMARK  139  A    between atoms: _354  and  _357
REMARK  140  A    between atoms: _357  and  _358
REMARK  141  A    between atoms: _358  and  _359
REMARK  142  A    between atoms: _359  and  _360
REMARK  143  A    between atoms: _360  and  _361
REMARK  144  A    between atoms: _365  and  _367
REMARK  145  A    between atoms: _367  and  _368
REMARK  146  A    between atoms: _367  and  _370
REMARK  147  A    between atoms: _370  and  _371
REMARK  148  A    between atoms: _374  and  _376
REMARK  149  A    between atoms: _376  and  _377
REMARK  150  A    between atoms: _380  and  _382
REMARK  151  A    between atoms: _382  and  _383
REMARK  152  A    between atoms: _385  and  _387
REMARK  153  A    between atoms: _387  and  _388
REMARK  154  A    between atoms: _387  and  _390
REMARK  155  A    between atoms: _390  and  _391
REMARK  156  A    between atoms: _394  and  _396
REMARK  157  A    between atoms: _396  and  _397
REMARK  158  A    between atoms: _396  and  _399
REMARK  159  A    between atoms: _399  and  _400
REMARK  160  A    between atoms: _403  and  _405
REMARK  161  A    between atoms: _405  and  _406
REMARK  162  A    between atoms: _409  and  _411
REMARK  163  A    between atoms: _411  and  _412
REMARK  164  A    between atoms: _411  and  _414
REMARK  165  A    between atoms: _414  and  _415
REMARK  166  A    between atoms: _415  and  _416
REMARK  167  A    between atoms: _419  and  _421
REMARK  168  A    between atoms: _421  and  _422
REMARK  169  A    between atoms: _421  and  _424
REMARK  170  A    between atoms: _427  and  _429
REMARK  171  A    between atoms: _429  and  _430
REMARK  172  A    between atoms: _429  and  _432
REMARK  173  A    between atoms: _432  and  _433
REMARK  174  A    between atoms: _436  and  _438
REMARK  175  A    between atoms: _438  and  _439
REMARK  176  A    between atoms: _441  and  _443
REMARK  177  A    between atoms: _443  and  _444
REMARK  178  A    between atoms: _443  and  _446
REMARK  179  A    between atoms: _449  and  _451
REMARK  180  A    between atoms: _451  and  _452
REMARK  181  A    between atoms: _454  and  _456
REMARK  182  A    between atoms: _456  and  _457
REMARK  183  A    between atoms: _456  and  _459
REMARK  184  A    between atoms: _459  and  _460
REMARK  185  A    between atoms: _463  and  _465
REMARK  186  A    between atoms: _465  and  _466
REMARK  187  A    between atoms: _465  and  _468
REMARK  188  A    between atoms: _468  and  _469
REMARK  189  A    between atoms: _474  and  _476
REMARK  190  A    between atoms: _476  and  _477
REMARK  191  A    between atoms: _476  and  _479
REMARK  192  A    between atoms: _482  and  _484
REMARK  193  A    between atoms: _484  and  _485
REMARK  194  A    between atoms: _484  and  _487
REMARK  195  A    between atoms: _487  and  _488
REMARK  196  A    between atoms: _488  and  _489
REMARK  197  A    between atoms: _494  and  _496
REMARK  198  A    between atoms: _496  and  _497
REMARK  199  A    between atoms: _501  and  _502
REMARK  200  A    between atoms: _507  and  _509
REMARK  201  A    between atoms: _509  and  _510
REMARK  202  A    between atoms: _509  and  _512
REMARK  203  A    between atoms: _512  and  _513
REMARK  204  A    between atoms: _513  and  _514
REMARK  205  A    between atoms: _517  and  _519
REMARK  206  A    between atoms: _519  and  _520
REMARK  207  A    between atoms: _519  and  _522
REMARK  208  A    between atoms: _525  and  _527
REMARK  209  A    between atoms: _527  and  _528
REMARK  210  A    between atoms: _527  and  _530
REMARK  211  A    between atoms: _530  and  _531
REMARK  212  A    between atoms: _535  and  _536
REMARK  213  A    between atoms: _541  and  _543
REMARK  214  A    between atoms: _543  and  _544
REMARK  215  A    between atoms: _543  and  _546
REMARK  216  A    between atoms: _546  and  _547
REMARK  217  A    between atoms: _550  and  _552
REMARK  218  A    between atoms: _552  and  _553
REMARK  219  A    between atoms: _556  and  _558
REMARK  220  A    between atoms: _558  and  _559
REMARK  221  A    between atoms: _558  and  _561
REMARK  222  A    between atoms: _561  and  _562
REMARK  223  A    between atoms: _565  and  _567
REMARK  224  A    between atoms: _567  and  _568
REMARK  225  A    between atoms: _567  and  _570
REMARK  226  A    between atoms: _570  and  _571
REMARK  227  A    between atoms: _573  and  _575
REMARK  228  A    between atoms: _575  and  _576
REMARK  229  A    between atoms: _578  and  _580
REMARK  230  A    between atoms: _580  and  _581
REMARK  231  A    between atoms: _580  and  _583
REMARK  232  A    between atoms: _583  and  _584
REMARK  233  A    between atoms: _587  and  _589
REMARK  234  A    between atoms: _589  and  _590
REMARK  235  A    between atoms: _589  and  _592
REMARK                            x       y       z     vdW  Elec       q    Type
REMARK                         _______ _______ _______ _____ _____    ______ ____
ROOT
ATOM      1  CA  LEU A   1      -2.049 -16.678  22.353  0.00  0.00    +0.133 C 
ENDROOT
BRANCH   1   2
ATOM      2  N   LEU A   1      -2.802 -17.719  21.664  0.00  0.00    -0.239 NA
ATOM      3  H   LEU A   1      -3.052 -17.590  20.663  0.00  0.00    +0.142 HD
ENDBRANCH   1   2
BRANCH   1   4
ATOM      4  C   LEU A   1      -2.763 -15.337  22.249  0.00  0.00    +0.224 C 
ATOM      5  O   LEU A   1      -2.991 -14.832  21.154  0.00  0.00    -0.287 OA
ENDBRANCH   1   4
BRANCH   1   6
ATOM      6  CB  LEU A   1      -0.632 -16.563  21.786  0.00  0.00    +0.025 C 
BRANCH   6   7
ATOM      7  CG  LEU A   1       0.199 -15.404  22.343  0.00  0.00    +0.002 C 
ATOM      8  CD2 LEU A   1       0.409 -15.554  23.844  0.00  0.00    +0.000 C 
ATOM      9  CD1 LEU A   1       1.531 -15.297  21.619  0.00  0.00    +0.000 C 
ENDBRANCH   6   7
ENDBRANCH   1   6
TORSDOF 4
REMARK  Name = ../refined-set-2016/4xtz/4xtz_pocket.pdb
REMARK  235 active torsions:
REMARK  status: ('A' for Active; 'I' for Inactive)
REMARK    1  A    between atoms: _1  and  _3
REMARK    2  A    between atoms: _3  and  _4
REMARK    3  A    between atoms: _3  and  _6
REMARK    4  A    between atoms: _6  and  _7
REMARK    5  A    between atoms: _10  and  _12
REMARK    6  A    between atoms: _12  and  _13
REMARK    7  A    between atoms: _15  and  _17
REMARK    8  A    between atoms: _17  and  _18
REMARK    9  A    between atoms: _17  and  _20
REMARK   10  A    between atoms: _20  and  _21
REMARK   11  A    between atoms: _23  and  _25
REMARK   12  A    between atoms: _25  and  _26
REMARK   13  A    between atoms: _25  and  _28
REMARK   14  A    between atoms: _28  and  _29
REMARK   15  A    between atoms: _32  and  _34
REMARK   16  A    between atoms: _34  and  _35
REMARK   17  A    between atoms: _34  and  _37
REMARK   18  A    between atoms: _37  and  _38
REMARK   19  A    between atoms: _43  and  _45
REMARK   20  A    between atoms: _45  and  _46
REMARK   21  A    between atoms: _49  and  _51
REMARK   22  A    between atoms: _51  and  _52
REMARK   23  A    between atoms: _51  and  _54
REMARK   24  A    between atoms: _54  and  _55
REMARK   25  A    between atoms: _58  and  _60
REMARK   26  A    between atoms: _60  and  _61
REMARK   27  A    between atoms: _60  and  _63
REMARK   28  A    between atoms: _63  and  _64
REMARK   29  A    between atoms: _67  and  _69
REMARK   30  A    between atoms: _69  and  _70
REMARK   31  A    between atoms: _69  and  _72
REMARK   32  A    between atoms: _72  and  _73
REMARK   33  A    between atoms: _76  and  _78
REMARK   34  A    between atoms: _78  and  _79
REMARK   35  A    between atoms: _82  and  _84
REMARK   36  A    between atoms: _84  and  _85
REMARK   37  A    between atoms: _84  and  _87
REMARK   38  A    between atoms: _87  and  _88
REMARK   39  A    between atoms: _88  and  _89
REMARK   40  A    between atoms: _94  and  _96
REMARK   41  A    between atoms: _96  and  _97
REMARK   42  A    between atoms: _96  and  _99
REMARK   43  A    between atoms: _99  and  _100
REMARK   44  A    between atoms: _103  and  _105
REMARK   45  A    between atoms: _105  and  _106
REMARK   46  A    between atoms: _109  and  _111
REMARK   47  A    between atoms: _111  and  _112
REMARK   48  A    between atoms: _114  and  _116
REMARK   49  A    between atoms: _116  and  _117
REMARK   50  A    between atoms: _116  and  _119
REMARK   51  A    between atoms: _119  and  _120
REMARK   52  A    between atoms: _120  and  _121
REMARK   53  A    between atoms: _121  and  _122
REMARK   54  A    between atoms: _131  and  _133
REMARK   55  A    between atoms: _133  and  _134
REMARK   56  A    between atoms: _136  and  _138
REMARK   57  A    between atoms: _138  and  _139
REMARK   58  A    between atoms: _138  and  _141
REMARK   59  A    between atoms: _141  and  _142
REMARK   60  A    between atoms: _142  and  _143
REMARK   61  A    between atoms: _143  and  _144
REMARK   62  A    between atoms: _153  and  _155
REMARK   63  A    between atoms: _155  and  _156
REMARK   64  A    between atoms: _155  and  _158
REMARK   65  A    between atoms: _158  and  _159
REMARK   66  A    between atoms: _164  and  _166
REMARK   67  A    between atoms: _166  and  _167
REMARK   68  A    between atoms: _169  and  _171
REMARK   69  A    between atoms: _171  and  _172
REMARK   70  A    between atoms: _171  and  _174
REMARK   71  A    between atoms: _174  and  _175
REMARK   72  A    between atoms: _175  and  _176
REMARK   73  A    between atoms: _176  and  _177
REMARK   74  A    between atoms: _186  and  _188
REMARK   75  A    between atoms: _188  and  _189
REMARK   76  A    between atoms: _191  and  _193
REMARK   77  A    between atoms: _193  and  _194
REMARK   78  A    between atoms: _193  and  _196
REMARK   79  A    between atoms: _196  and  _197
REMARK   80  A    between atoms: _207  and  _209
REMARK   81  A    between atoms: _209  and  _210
REMARK   82  A    between atoms: _213  and  _215
REMARK   83  A    between atoms: _215  and  _216
REMARK   84  A    between atoms: _219  and  _221
REMARK   85  A    between atoms: _221  and  _222
REMARK   86  A    between atoms: _221  and  _224
REMARK   87  A    between atoms: _224  and  _225
REMARK   88  A    between atoms: _228  and  _230
REMARK   89  A    between atoms: _230  and  _231
REMARK   90  A    between atoms: _230  and  _233
REMARK   91  A    between atoms: _233  and  _234
REMARK   92  A    between atoms: _234  and  _235
REMARK   93  A    between atoms: _240  and  _242
REMARK   94  A    between atoms: _242  and  _243
REMARK   95  A    between atoms: _242  and  _245
REMARK   96  A    between atoms: _245  and  _246
REMARK   97  A    between atoms: _249  and  _251
REMARK   98  A    between atoms: _251  and  _252
REMARK   99  A    between atoms: _251  and  _254
REMARK  100  A    between atoms: _254  and  _255
REMARK  101  A    between atoms: _258  and  _260
REMARK  102  A    between atoms: _260  and  _261
REMARK  103  A    between atoms: _260  and  _263
REMARK  104  A    between atoms: _263  and  _264
REMARK  105  A    between atoms: _267  and  _269
REMARK  106  A    between atoms: _269  and  _270
REMARK  107  A    between atoms: _269  and  _272
REMARK  108  A    between atoms: _272  and  _273
REMARK  109  A    between atoms: _275  and  _277
REMARK  110  A    between atoms: _277  and  _278
REMARK  111  A    between atoms: _277  and  _280
REMARK  112  A    between atoms: _283  and  _285
REMARK  113  A    between atoms: _285  and  _286
REMARK  114  A    between atoms: _285  and  _288
REMARK  115  A    between atoms: _288  and  _289
REMARK  116  A    between atoms: _289  and  _290
REMARK  117  A    between atoms: _290  and  _291
REMARK  118  A    between atoms: _291  and  _292
REMARK  119  A    between atoms: _296  and  _298
REMARK  120  A    between atoms: _298  and  _299
REMARK  121  A    between atoms: _298  and  _301
REMARK  122  A    between atoms: _301  and  _302
REMARK  123  A    between atoms: _313  and  _314
REMARK  124  A    between atoms: _319  and  _321
REMARK  125  A    between atoms: _321  and  _322
REMARK  126  A    between atoms: _321  and  _324
REMARK  127  A    between atoms: _324  and  _325
REMARK  128  A    between atoms: _330  and  _332
REMARK  129  A    between atoms: _332  and  _333
REMARK  130  A    between atoms: _332  and  _335
REMARK  131  A    between atoms: _335  and  _336
REMARK  132  A    between atoms: _339  and  _341
REMARK  133  A    between atoms: _341  and  _342
REMARK  134  A    between atoms: _341  and  _344
REMARK  135  A    between atoms: _347  and  _349
REMARK  136  A    between atoms: _349  and  _350
REMARK  137  A    between atoms: _352  and  _354
REMARK  138  A    between atoms: _354  and  _355
REMARK  139  A    between atoms: _354  and  _357
REMARK  140  A    between atoms: _357  and  _358
REMARK  141  A    between atoms: _358  and  _359
REMARK  142  A    between atoms: _359  and  _360
REMARK  143  A    between atoms: _360  and  _361
REMARK  144  A    between atoms: _365  and  _367
REMARK  145  A    between atoms: _367  and  _368
REMARK  146  A    between atoms: _367  and  _370
REMARK  147  A    between atoms: _370  and  _371
REMARK  148  A    between atoms: _374  and  _376
REMARK  149  A    between atoms: _376  and  _377
REMARK  150  A    between atoms: _380  and  _382
REMARK  151  A    between atoms: _382  and  _383
REMARK  152  A    between atoms: _385  and  _387
REMARK  153  A    between atoms: _387  and  _388
REMARK  154  A    between atoms: _387  and  _390
REMARK  155  A    between atoms: _390  and  _391
REMARK  156  A    between atoms: _394  and  _396
REMARK  157  A    between atoms: _396  and  _397
REMARK  158  A    between atoms: _396  and  _399
REMARK  159  A    between atoms: _399  and  _400
REMARK  160  A    between atoms: _403  and  _405
REMARK  161  A    between atoms: _405  and  _406
REMARK  162  A    between atoms: _409  and  _411
REMARK  163  A    between atoms: _411  and  _412
REMARK  164  A    between atoms: _411  and  _414
REMARK  165  A    between atoms: _414  and  _415
REMARK  166  A    between atoms: _415  and  _416
REMARK  167  A    between atoms: _419  and  _421
REMARK  168  A    between atoms: _421  and  _422
REMARK  169  A    between atoms: _421  and  _424
REMARK  170  A    between atoms: _427  and  _429
REMARK  171  A    between atoms: _429  and  _430
REMARK  172  A    between atoms: _429  and  _432
REMARK  173  A    between atoms: _432  and  _433
REMARK  174  A    between atoms: _436  and  _438
REMARK  175  A    between atoms: _438  and  _439
REMARK  176  A    between atoms: _441  and  _443
REMARK  177  A    between atoms: _443  and  _444
REMARK  178  A    between atoms: _443  and  _446
REMARK  179  A    between atoms: _449  and  _451
REMARK  180  A    between atoms: _451  and  _452
REMARK  181  A    between atoms: _454  and  _456
REMARK  182  A    between atoms: _456  and  _457
REMARK  183  A    between atoms: _456  and  _459
REMARK  184  A    between atoms: _459  and  _460
REMARK  185  A    between atoms: _463  and  _465
REMARK  186  A    between atoms: _465  and  _466
REMARK  187  A    between atoms: _465  and  _468
REMARK  188  A    between atoms: _468  and  _469
REMARK  189  A    between atoms: _474  and  _476
REMARK  190  A    between atoms: _476  and  _477
REMARK  191  A    between atoms: _476  and  _479
REMARK  192  A    between atoms: _482  and  _484
REMARK  193  A    between atoms: _484  and  _485
REMARK  194  A    between atoms: _484  and  _487
REMARK  195  A    between atoms: _487  and  _488
REMARK  196  A    between atoms: _488  and  _489
REMARK  197  A    between atoms: _494  and  _496
REMARK  198  A    between atoms: _496  and  _497
REMARK  199  A    between atoms: _501  and  _502
REMARK  200  A    between atoms: _507  and  _509
REMARK  201  A    between atoms: _509  and  _510
REMARK  202  A    between atoms: _509  and  _512
REMARK  203  A    between atoms: _512  and  _513
REMARK  204  A    between atoms: _513  and  _514
REMARK  205  A    between atoms: _517  and  _519
REMARK  206  A    between atoms: _519  and  _520
REMARK  207  A    between atoms: _519  and  _522
REMARK  208  A    between atoms: _525  and  _527
REMARK  209  A    between atoms: _527  and  _528
REMARK  210  A    between atoms: _527  and  _530
REMARK  211  A    between atoms: _530  and  _531
REMARK  212  A    between atoms: _535  and  _536
REMARK  213  A    between atoms: _541  and  _543
REMARK  214  A    between atoms: _543  and  _544
REMARK  215  A    between atoms: _543  and  _546
REMARK  216  A    between atoms: _546  and  _547
REMARK  217  A    between atoms: _550  and  _552
REMARK  218  A    between atoms: _552  and  _553
REMARK  219  A    between atoms: _556  and  _558
REMARK  220  A    between atoms: _558  and  _559
REMARK  221  A    between atoms: _558  and  _561
REMARK  222  A    between atoms: _561  and  _562
REMARK  223  A    between atoms: _565  and  _567
REMARK  224  A    between atoms: _567  and  _568
REMARK  225  A    between atoms: _567  and  _570
REMARK  226  A    between atoms: _570  and  _571
REMARK  227  A    between atoms: _573  and  _575
REMARK  228  A    between atoms: _575  and  _576
REMARK  229  A    between atoms: _578  and  _580
REMARK  230  A    between atoms: _580  and  _581
REMARK  231  A    between atoms: _580  and  _583
REMARK  232  A    between atoms: _583  and  _584
REMARK  233  A    between atoms: _587  and  _589
REMARK  234  A    between atoms: _589  and  _590
REMARK  235  A    between atoms: _589  and  _592
REMARK                            x       y       z     vdW  Elec       q    Type
REMARK                         _______ _______ _______ _____ _____    ______ ____
ROOT
ATOM      1  CA  ALA A   1      -2.012 -10.181  24.178  0.00  0.00    +0.133 C 
ATOM      2  CB  ALA A   1      -0.898  -9.738  23.239  0.00  0.00    +0.027 C 
ENDROOT
BRANCH   1   3
ATOM      3  N   ALA A   1      -2.795 -11.253  23.573  0.00  0.00    -0.239 NA
ATOM      4  H   ALA A   1      -3.286 -11.079  22.673  0.00  0.00    +0.142 HD
ENDBRANCH   1   3
BRANCH   1   5
ATOM      5  C   ALA A   1      -2.891  -8.992  24.548  0.00  0.00    +0.224 C 
ATOM      6  O   ALA A   1      -3.719  -8.549  23.751  0.00  0.00    -0.287 OA
ENDBRANCH   1   5
TORSDOF 2
REMARK  Name = ../refined-set-2016/4xtz/4xtz_pocket.pdb
REMARK  235 active torsions:
REMARK  status: ('A' for Active; 'I' for Inactive)
REMARK    1  A    between atoms: _1  and  _3
REMARK    2  A    between atoms: _3  and  _4
REMARK    3  A    between atoms: _3  and  _6
REMARK    4  A    between atoms: _6  and  _7
REMARK    5  A    between atoms: _10  and  _12
REMARK    6  A    between atoms: _12  and  _13
REMARK    7  A    between atoms: _15  and  _17
REMARK    8  A    between atoms: _17  and  _18
REMARK    9  A    between atoms: _17  and  _20
REMARK   10  A    between atoms: _20  and  _21
REMARK   11  A    between atoms: _23  and  _25
REMARK   12  A    between atoms: _25  and  _26
REMARK   13  A    between atoms: _25  and  _28
REMARK   14  A    between atoms: _28  and  _29
REMARK   15  A    between atoms: _32  and  _34
REMARK   16  A    between atoms: _34  and  _35
REMARK   17  A    between atoms: _34  and  _37
REMARK   18  A    between atoms: _37  and  _38
REMARK   19  A    between atoms: _43  and  _45
REMARK   20  A    between atoms: _45  and  _46
REMARK   21  A    between atoms: _49  and  _51
REMARK   22  A    between atoms: _51  and  _52
REMARK   23  A    between atoms: _51  and  _54
REMARK   24  A    between atoms: _54  and  _55
REMARK   25  A    between atoms: _58  and  _60
REMARK   26  A    between atoms: _60  and  _61
REMARK   27  A    between atoms: _60  and  _63
REMARK   28  A    between atoms: _63  and  _64
REMARK   29  A    between atoms: _67  and  _69
REMARK   30  A    between atoms: _69  and  _70
REMARK   31  A    between atoms: _69  and  _72
REMARK   32  A    between atoms: _72  and  _73
REMARK   33  A    between atoms: _76  and  _78
REMARK   34  A    between atoms: _78  and  _79
REMARK   35  A    between atoms: _82  and  _84
REMARK   36  A    between atoms: _84  and  _85
REMARK   37  A    between atoms: _84  and  _87
REMARK   38  A    between atoms: _87  and  _88
REMARK   39  A    between atoms: _88  and  _89
REMARK   40  A    between atoms: _94  and  _96
REMARK   41  A    between atoms: _96  and  _97
REMARK   42  A    between atoms: _96  and  _99
REMARK   43  A    between atoms: _99  and  _100
REMARK   44  A    between atoms: _103  and  _105
REMARK   45  A    between atoms: _105  and  _106
REMARK   46  A    between atoms: _109  and  _111
REMARK   47  A    between atoms: _111  and  _112
REMARK   48  A    between atoms: _114  and  _116
REMARK   49  A    between atoms: _116  and  _117
REMARK   50  A    between atoms: _116  and  _119
REMARK   51  A    between atoms: _119  and  _120
REMARK   52  A    between atoms: _120  and  _121
REMARK   53  A    between atoms: _121  and  _122
REMARK   54  A    between atoms: _131  and  _133
REMARK   55  A    between atoms: _133  and  _134
REMARK   56  A    between atoms: _136  and  _138
REMARK   57  A    between atoms: _138  and  _139
REMARK   58  A    between atoms: _138  and  _141
REMARK   59  A    between atoms: _141  and  _142
REMARK   60  A    between atoms: _142  and  _143
REMARK   61  A    between atoms: _143  and  _144
REMARK   62  A    between atoms: _153  and  _155
REMARK   63  A    between atoms: _155  and  _156
REMARK   64  A    between atoms: _155  and  _158
REMARK   65  A    between atoms: _158  and  _159
REMARK   66  A    between atoms: _164  and  _166
REMARK   67  A    between atoms: _166  and  _167
REMARK   68  A    between atoms: _169  and  _171
REMARK   69  A    between atoms: _171  and  _172
REMARK   70  A    between atoms: _171  and  _174
REMARK   71  A    between atoms: _174  and  _175
REMARK   72  A    between atoms: _175  and  _176
REMARK   73  A    between atoms: _176  and  _177
REMARK   74  A    between atoms: _186  and  _188
REMARK   75  A    between atoms: _188  and  _189
REMARK   76  A    between atoms: _191  and  _193
REMARK   77  A    between atoms: _193  and  _194
REMARK   78  A    between atoms: _193  and  _196
REMARK   79  A    between atoms: _196  and  _197
REMARK   80  A    between atoms: _207  and  _209
REMARK   81  A    between atoms: _209  and  _210
REMARK   82  A    between atoms: _213  and  _215
REMARK   83  A    between atoms: _215  and  _216
REMARK   84  A    between atoms: _219  and  _221
REMARK   85  A    between atoms: _221  and  _222
REMARK   86  A    between atoms: _221  and  _224
REMARK   87  A    between atoms: _224  and  _225
REMARK   88  A    between atoms: _228  and  _230
REMARK   89  A    between atoms: _230  and  _231
REMARK   90  A    between atoms: _230  and  _233
REMARK   91  A    between atoms: _233  and  _234
REMARK   92  A    between atoms: _234  and  _235
REMARK   93  A    between atoms: _240  and  _242
REMARK   94  A    between atoms: _242  and  _243
REMARK   95  A    between atoms: _242  and  _245
REMARK   96  A    between atoms: _245  and  _246
REMARK   97  A    between atoms: _249  and  _251
REMARK   98  A    between atoms: _251  and  _252
REMARK   99  A    between atoms: _251  and  _254
REMARK  100  A    between atoms: _254  and  _255
REMARK  101  A    between atoms: _258  and  _260
REMARK  102  A    between atoms: _260  and  _261
REMARK  103  A    between atoms: _260  and  _263
REMARK  104  A    between atoms: _263  and  _264
REMARK  105  A    between atoms: _267  and  _269
REMARK  106  A    between atoms: _269  and  _270
REMARK  107  A    between atoms: _269  and  _272
REMARK  108  A    between atoms: _272  and  _273
REMARK  109  A    between atoms: _275  and  _277
REMARK  110  A    between atoms: _277  and  _278
REMARK  111  A    between atoms: _277  and  _280
REMARK  112  A    between atoms: _283  and  _285
REMARK  113  A    between atoms: _285  and  _286
REMARK  114  A    between atoms: _285  and  _288
REMARK  115  A    between atoms: _288  and  _289
REMARK  116  A    between atoms: _289  and  _290
REMARK  117  A    between atoms: _290  and  _291
REMARK  118  A    between atoms: _291  and  _292
REMARK  119  A    between atoms: _296  and  _298
REMARK  120  A    between atoms: _298  and  _299
REMARK  121  A    between atoms: _298  and  _301
REMARK  122  A    between atoms: _301  and  _302
REMARK  123  A    between atoms: _313  and  _314
REMARK  124  A    between atoms: _319  and  _321
REMARK  125  A    between atoms: _321  and  _322
REMARK  126  A    between atoms: _321  and  _324
REMARK  127  A    between atoms: _324  and  _325
REMARK  128  A    between atoms: _330  and  _332
REMARK  129  A    between atoms: _332  and  _333
REMARK  130  A    between atoms: _332  and  _335
REMARK  131  A    between atoms: _335  and  _336
REMARK  132  A    between atoms: _339  and  _341
REMARK  133  A    between atoms: _341  and  _342
REMARK  134  A    between atoms: _341  and  _344
REMARK  135  A    between atoms: _347  and  _349
REMARK  136  A    between atoms: _349  and  _350
REMARK  137  A    between atoms: _352  and  _354
REMARK  138  A    between atoms: _354  and  _355
REMARK  139  A    between atoms: _354  and  _357
REMARK  140  A    between atoms: _357  and  _358
REMARK  141  A    between atoms: _358  and  _359
REMARK  142  A    between atoms: _359  and  _360
REMARK  143  A    between atoms: _360  and  _361
REMARK  144  A    between atoms: _365  and  _367
REMARK  145  A    between atoms: _367  and  _368
REMARK  146  A    between atoms: _367  and  _370
REMARK  147  A    between atoms: _370  and  _371
REMARK  148  A    between atoms: _374  and  _376
REMARK  149  A    between atoms: _376  and  _377
REMARK  150  A    between atoms: _380  and  _382
REMARK  151  A    between atoms: _382  and  _383
REMARK  152  A    between atoms: _385  and  _387
REMARK  153  A    between atoms: _387  and  _388
REMARK  154  A    between atoms: _387  and  _390
REMARK  155  A    between atoms: _390  and  _391
REMARK  156  A    between atoms: _394  and  _396
REMARK  157  A    between atoms: _396  and  _397
REMARK  158  A    between atoms: _396  and  _399
REMARK  159  A    between atoms: _399  and  _400
REMARK  160  A    between atoms: _403  and  _405
REMARK  161  A    between atoms: _405  and  _406
REMARK  162  A    between atoms: _409  and  _411
REMARK  163  A    between atoms: _411  and  _412
REMARK  164  A    between atoms: _411  and  _414
REMARK  165  A    between atoms: _414  and  _415
REMARK  166  A    between atoms: _415  and  _416
REMARK  167  A    between atoms: _419  and  _421
REMARK  168  A    between atoms: _421  and  _422
REMARK  169  A    between atoms: _421  and  _424
REMARK  170  A    between atoms: _427  and  _429
REMARK  171  A    between atoms: _429  and  _430
REMARK  172  A    between atoms: _429  and  _432
REMARK  173  A    between atoms: _432  and  _433
REMARK  174  A    between atoms: _436  and  _438
REMARK  175  A    between atoms: _438  and  _439
REMARK  176  A    between atoms: _441  and  _443
REMARK  177  A    between atoms: _443  and  _444
REMARK  178  A    between atoms: _443  and  _446
REMARK  179  A    between atoms: _449  and  _451
REMARK  180  A    between atoms: _451  and  _452
REMARK  181  A    between atoms: _454  and  _456
REMARK  182  A    between atoms: _456  and  _457
REMARK  183  A    between atoms: _456  and  _459
REMARK  184  A    between atoms: _459  and  _460
REMARK  185  A    between atoms: _463  and  _465
REMARK  186  A    between atoms: _465  and  _466
REMARK  187  A    between atoms: _465  and  _468
REMARK  188  A    between atoms: _468  and  _469
REMARK  189  A    between atoms: _474  and  _476
REMARK  190  A    between atoms: _476  and  _477
REMARK  191  A    between atoms: _476  and  _479
REMARK  192  A    between atoms: _482  and  _484
REMARK  193  A    between atoms: _484  and  _485
REMARK  194  A    between atoms: _484  and  _487
REMARK  195  A    between atoms: _487  and  _488
REMARK  196  A    between atoms: _488  and  _489
REMARK  197  A    between atoms: _494  and  _496
REMARK  198  A    between atoms: _496  and  _497
REMARK  199  A    between atoms: _501  and  _502
REMARK  200  A    between atoms: _507  and  _509
REMARK  201  A    between atoms: _509  and  _510
REMARK  202  A    between atoms: _509  and  _512
REMARK  203  A    between atoms: _512  and  _513
REMARK  204  A    between atoms: _513  and  _514
REMARK  205  A    between atoms: _517  and  _519
REMARK  206  A    between atoms: _519  and  _520
REMARK  207  A    between atoms: _519  and  _522
REMARK  208  A    between atoms: _525  and  _527
REMARK  209  A    between atoms: _527  and  _528
REMARK  210  A    between atoms: _527  and  _530
REMARK  211  A    between atoms: _530  and  _531
REMARK  212  A    between atoms: _535  and  _536
REMARK  213  A    between atoms: _541  and  _543
REMARK  214  A    between atoms: _543  and  _544
REMARK  215  A    between atoms: _543  and  _546
REMARK  216  A    between atoms: _546  and  _547
REMARK  217  A    between atoms: _550  and  _552
REMARK  218  A    between atoms: _552  and  _553
REMARK  219  A    between atoms: _556  and  _558
REMARK  220  A    between atoms: _558  and  _559
REMARK  221  A    between atoms: _558  and  _561
REMARK  222  A    between atoms: _561  and  _562
REMARK  223  A    between atoms: _565  and  _567
REMARK  224  A    between atoms: _567  and  _568
REMARK  225  A    between atoms: _567  and  _570
REMARK  226  A    between atoms: _570  and  _571
REMARK  227  A    between atoms: _573  and  _575
REMARK  228  A    between atoms: _575  and  _576
REMARK  229  A    between atoms: _578  and  _580
REMARK  230  A    between atoms: _580  and  _581
REMARK  231  A    between atoms: _580  and  _583
REMARK  232  A    between atoms: _583  and  _584
REMARK  233  A    between atoms: _587  and  _589
REMARK  234  A    between atoms: _589  and  _590
REMARK  235  A    between atoms: _589  and  _592
REMARK                            x       y       z     vdW  Elec       q    Type
REMARK                         _______ _______ _______ _____ _____    ______ ____
ROOT
ATOM      1  C   ARG A   7       0.333  -6.992   4.541  0.00  0.00    +0.241 C 
ATOM      2  O   ARG A   7       0.421  -5.773   4.695  0.00  0.00    -0.273 OA
ATOM      3  N   HIS A   8       1.062  -7.675   3.661  0.00  0.00    -0.297 N 
ATOM      4  H   HIS A   8       1.005  -8.713   3.667  0.00  0.00    +0.150 HD
ENDROOT
BRANCH   3   5
ATOM      5  CA  HIS A   8       1.940  -7.029   2.686  0.00  0.00    +0.155 C 
BRANCH   5   6
ATOM      6  C   HIS A   8       2.982  -6.116   3.329  0.00  0.00    +0.241 C 
ATOM      7  N   GLY A   9       3.435  -6.481   4.524  0.00  0.00    -0.295 N 
ATOM      8  H   GLY A   9       3.033  -7.323   4.983  0.00  0.00    +0.150 HD
ATOM      9  O   HIS A   8       3.363  -5.098   2.751  0.00  0.00    -0.273 OA
BRANCH   7  10
ATOM     10  CA  GLY A   9       4.477  -5.733   5.205  0.00  0.00    +0.176 C 
BRANCH  10  11
ATOM     11  C   GLY A   9       3.998  -4.492   5.934  0.00  0.00    +0.243 C 
ATOM     12  O   GLY A   9       4.807  -3.714   6.440  0.00  0.00    -0.273 OA
ATOM     13  N   ARG A  10       2.685  -4.299   5.994  0.00  0.00    -0.297 N 
ATOM     14  H   ARG A  10       2.045  -4.976   5.532  0.00  0.00    +0.150 HD
BRANCH  13  15
ATOM     15  CA  ARG A  10       2.129  -3.150   6.699  0.00  0.00    +0.149 C 
BRANCH  15  16
ATOM     16  C   ARG A  10       2.080  -3.409   8.201  0.00  0.00    +0.241 C 
ATOM     17  N   GLY A  11       1.590  -2.434   8.958  0.00  0.00    -0.295 N 
ATOM     18  H   GLY A  11       1.220  -1.573   8.507  0.00  0.00    +0.150 HD
ATOM     19  O   ARG A  10       2.486  -4.471   8.668  0.00  0.00    -0.273 OA
BRANCH  17  20
ATOM     20  CA  GLY A  11       1.563  -2.551  10.403  0.00  0.00    +0.176 C 
BRANCH  20  21
ATOM     21  C   GLY A  11       0.169  -2.706  10.977  0.00  0.00    +0.243 C 
ATOM     22  N   TRP A  12       0.108  -2.937  12.284  0.00  0.00    -0.297 N 
ATOM     23  H   TRP A  12       0.992  -3.107  12.804  0.00  0.00    +0.150 HD
ATOM     24  O   GLY A  11      -0.827  -2.633  10.256  0.00  0.00    -0.273 OA
BRANCH  22  25
ATOM     25  CA  TRP A  12      -1.151  -2.961  13.016  0.00  0.00    +0.153 C 
BRANCH  25  26
ATOM     26  C   TRP A  12      -0.964  -2.216  14.330  0.00  0.00    +0.241 C 
ATOM     27  O   TRP A  12      -0.084  -2.554  15.120  0.00  0.00    -0.273 OA
ATOM     28  N   ALA A  13      -1.783  -1.195  14.554  0.00  0.00    -0.297 N 
ATOM     29  H   ALA A  13      -2.544  -0.996  13.874  0.00  0.00    +0.150 HD
BRANCH  28  30
ATOM     30  CA  ALA A  13      -1.641  -0.346  15.731  0.00  0.00    +0.149 C 
ATOM     31  CB  ALA A  13      -1.858   1.113  15.360  0.00  0.00    +0.031 C 
BRANCH  30  32
ATOM     32  C   ALA A  13      -2.604  -0.761  16.836  0.00  0.00    +0.241 C 
ATOM     33  N   ALA A  14      -2.185  -0.565  18.082  0.00  0.00    -0.297 N 
ATOM     34  H   ALA A  14      -1.251  -0.137  18.242  0.00  0.00    +0.150 HD
ATOM     35  O   ALA A  13      -3.702  -1.248  16.565  0.00  0.00    -0.273 OA
BRANCH  33  36
ATOM     36  CA  ALA A  14      -3.004  -0.935  19.228  0.00  0.00    +0.149 C 
ATOM     37  CB  ALA A  14      -2.924  -2.443  19.472  0.00  0.00    +0.031 C 
BRANCH  36  38
ATOM     38  C   ALA A  14      -2.590  -0.182  20.483  0.00  0.00    +0.241 C 
ATOM     39  N   THR A  15      -3.548   0.016  21.382  0.00  0.00    -0.296 N 
ATOM     40  H   THR A  15      -4.537  -0.165  21.116  0.00  0.00    +0.150 HD
ATOM     41  O   ALA A  14      -1.437   0.223  20.628  0.00  0.00    -0.273 OA
BRANCH  39  42
ATOM     42  CA  THR A  15      -3.251   0.480  22.731  0.00  0.00    +0.164 C 
BRANCH  42  43
ATOM     43  C   THR A  15      -3.717  -0.595  23.704  0.00  0.00    +0.229 C 
ATOM     44  O   THR A  15      -4.519  -1.457  23.340  0.00  0.00    -0.286 OA
ENDBRANCH  42  43
BRANCH  42  45
ATOM     45  CB  THR A  15      -3.927   1.827  23.057  0.00  0.00    +0.136 C 
ATOM     46  CG2 THR A  15      -3.697   2.830  21.936  0.00  0.00    +0.034 C 
BRANCH  45  47
ATOM     47  OG1 THR A  15      -5.332   1.630  23.253  0.00  0.00    -0.382 OA
ATOM     48  HG1 THR A  15      -5.760   2.498  23.462  0.00  0.00    +0.210 HD
ENDBRANCH  45  47
ENDBRANCH  42  45
ENDBRANCH  39  42
ENDBRANCH  36  38
ENDBRANCH  33  36
ENDBRANCH  30  32
ENDBRANCH  28  30
ENDBRANCH  25  26
BRANCH  25  49
ATOM     49  CB  TRP A  12      -1.620  -4.396  13.270  0.00  0.00    +0.057 C 
BRANCH  49  50
ATOM     50  CG  TRP A  12      -3.003  -4.477  13.846  0.00  0.00    -0.002 A 
ATOM     51  CD1 TRP A  12      -3.340  -4.748  15.142  0.00  0.00    +0.068 A 
ATOM     52  NE1 TRP A  12      -4.708  -4.732  15.288  0.00  0.00    -0.352 N 
ATOM     53  HE1 TRP A  12      -5.224  -4.910  16.173  0.00  0.00    +0.166 HD
ATOM     54  CE2 TRP A  12      -5.280  -4.443  14.077  0.00  0.00    +0.056 A 
ATOM     55  CZ2 TRP A  12      -6.624  -4.316  13.726  0.00  0.00    +0.017 A 
ATOM     56  CH2 TRP A  12      -6.909  -4.018  12.421  0.00  0.00    +0.001 A 
ATOM     57  CZ3 TRP A  12      -5.894  -3.846  11.471  0.00  0.00    +0.000 A 
ATOM     58  CE3 TRP A  12      -4.560  -3.969  11.819  0.00  0.00    +0.001 A 
ATOM     59  CD2 TRP A  12      -4.237  -4.275  13.145  0.00  0.00    +0.013 A 
ENDBRANCH  49  50
ENDBRANCH  25  49
ENDBRANCH  22  25
ENDBRANCH  20  21
ENDBRANCH  17  20
ENDBRANCH  15  16
BRANCH  15  60
ATOM     60  CB  ARG A  10       0.739  -2.810   6.159  0.00  0.00    +0.033 C 
BRANCH  60  61
ATOM     61  CG  ARG A  10       0.775  -1.930   4.918  0.00  0.00    +0.045 C 
BRANCH  61  62
ATOM     62  CD  ARG A  10      -0.606  -1.717   4.329  0.00  0.00    +0.174 C 
BRANCH  62  63
ATOM     63  NE  ARG A  10      -1.093  -2.909   3.645  0.00  0.00    -0.265 N 
ATOM     64  HE  ARG A  10      -0.485  -3.752   3.645  0.00  0.00    +0.259 HD
ATOM     65  CZ  ARG A  10      -2.264  -2.987   3.022  0.00  0.00    +0.342 C 
ATOM     66  NH2 ARG A  10      -3.074  -1.937   2.995  0.00  0.00    -0.292 N 
ATOM     67 HH21 ARG A  10      -2.793  -1.051   3.462  0.00  0.00    +0.255 HD
ATOM     68 HH22 ARG A  10      -3.990  -1.999   2.507  0.00  0.00    +0.255 HD
ATOM     69  NH1 ARG A  10      -2.625  -4.115   2.426  0.00  0.00    -0.292 N 
ATOM     70 HH11 ARG A  10      -1.991  -4.940   2.446  0.00  0.00    +0.255 HD
ATOM     71 HH12 ARG A  10      -3.542  -4.175   1.939  0.00  0.00    +0.255 HD
ENDBRANCH  62  63
ENDBRANCH  61  62
ENDBRANCH  60  61
ENDBRANCH  15  60
ENDBRANCH  13  15
ENDBRANCH  10  11
ENDBRANCH   7  10
ENDBRANCH   5   6
BRANCH   5  72
ATOM     72  CB  HIS A   8       1.110  -6.231   1.678  0.00  0.00    +0.076 C 
BRANCH  72  73
ATOM     73  CG  HIS A   8      -0.030  -7.003   1.091  0.00  0.00    +0.082 A 
ATOM     74  CD2 HIS A   8      -1.352  -6.718   1.012  0.00  0.00    +0.115 A 
ATOM     75  NE2 HIS A   8      -1.957  -7.775   0.375  0.00  0.00    -0.221 NA
ATOM     76  CE1 HIS A   8      -1.040  -8.678   0.076  0.00  0.00    +0.199 A 
ATOM     77  ND1 HIS A   8       0.132  -8.236   0.498  0.00  0.00    -0.227 NA
ENDBRANCH  72  73
ENDBRANCH   5  72
ENDBRANCH   3   5
BRANCH   1  78
ATOM     78  CA  ARG A   7      -0.634  -7.813   5.387  0.00  0.00    +0.149 C 
BRANCH  78  81
ATOM     79  C   GLY A   6      -0.080  -7.048   7.620  0.00  0.00    +0.243 C 
ATOM     80  O   GLY A   6       1.016  -7.608   7.585  0.00  0.00    -0.273 OA
ATOM     81  N   ARG A   7      -0.954  -7.114   6.623  0.00  0.00    -0.297 N 
ATOM     82  H   ARG A   7      -1.883  -6.659   6.727  0.00  0.00    +0.150 HD
BRANCH  79  83
ATOM     83  CA  GLY A   6      -0.496  -6.239   8.833  0.00  0.00    +0.176 C 
BRANCH  83  86
ATOM     84  C   ARG A   5       0.602  -6.854  10.907  0.00  0.00    +0.241 C 
ATOM     85  O   ARG A   5      -0.368  -7.503  11.298  0.00  0.00    -0.273 OA
ATOM     86  N   GLY A   6       0.602  -6.159   9.776  0.00  0.00    -0.295 N 
ATOM     87  H   GLY A   6       1.411  -5.541   9.561  0.00  0.00    +0.150 HD
BRANCH  84  88
ATOM     88  CA  ARG A   5       1.889  -6.801  11.719  0.00  0.00    +0.149 C 
BRANCH  88  91
ATOM     89  C   GLY A   4       2.019  -5.474  13.747  0.00  0.00    +0.243 C 
ATOM     90  O   GLY A   4       2.564  -4.539  13.160  0.00  0.00    -0.273 OA
ATOM     91  N   ARG A   5       1.629  -6.585  13.133  0.00  0.00    -0.297 N 
ATOM     92  H   ARG A   5       1.127  -7.316  13.675  0.00  0.00    +0.150 HD
BRANCH  89  93
ATOM     93  CA  GLY A   4       1.750  -5.409  15.236  0.00  0.00    +0.176 C 
BRANCH  93  95
ATOM     94  C   ALA A   3       4.039  -4.961  15.946  0.00  0.00    +0.241 C 
ATOM     95  N   GLY A   4       2.747  -4.648  15.967  0.00  0.00    -0.295 N 
ATOM     96  H   GLY A   4       2.439  -3.828  16.528  0.00  0.00    +0.150 HD
ATOM     97  O   ALA A   3       4.502  -5.885  15.273  0.00  0.00    -0.273 OA
BRANCH  94  98
ATOM     98  CA  ALA A   3       4.942  -4.109  16.830  0.00  0.00    +0.149 C 
ATOM     99  CB  ALA A   3       6.363  -4.651  16.823  0.00  0.00    +0.031 C 
BRANCH  98 102
ATOM    100  C   THR A   2       4.359  -2.919  18.869  0.00  0.00    +0.243 C 
ATOM    101  O   THR A   2       4.779  -1.854  18.413  0.00  0.00    -0.273 OA
ATOM    102  N   ALA A   3       4.419  -4.060  18.193  0.00  0.00    -0.297 N 
ATOM    103  H   ALA A   3       4.087  -4.937  18.643  0.00  0.00    +0.150 HD
BRANCH 100 104
ATOM    104  CA  THR A   2       3.751  -2.973  20.270  0.00  0.00    +0.176 C 
BRANCH 104 106
ATOM    105  C   GLN A   1       1.612  -4.126  20.475  0.00  0.00    +0.238 C 
ATOM    106  N   THR A   2       2.941  -4.163  20.537  0.00  0.00    -0.295 N 
ATOM    107  H   THR A   2       3.414  -5.057  20.780  0.00  0.00    +0.150 HD
ATOM    108  O   GLN A   1       0.992  -3.174  20.000  0.00  0.00    -0.274 OA
BRANCH 105 109
ATOM    109  CA  GLN A   1       0.864  -5.336  21.034  0.00  0.00    +0.145 C 
BRANCH 109 110
ATOM    110  N   GLN A   1      -0.024  -4.900  22.103  0.00  0.00    -0.238 NA
ATOM    111  H   GLN A   1      -0.620  -4.061  21.950  0.00  0.00    +0.142 HD
ENDBRANCH 109 110
BRANCH 109 112
ATOM    112  CB  GLN A   1       0.063  -6.049  19.942  0.00  0.00    +0.036 C 
BRANCH 112 113
ATOM    113  CG  GLN A   1       0.893  -6.754  18.888  0.00  0.00    +0.087 C 
BRANCH 113 114
ATOM    114  CD  GLN A   1       0.039  -7.592  17.951  0.00  0.00    +0.219 C 
ATOM    115  OE1 GLN A   1       0.080  -8.823  17.987  0.00  0.00    -0.275 OA
ATOM    116  NE2 GLN A   1      -0.748  -6.926  17.112  0.00  0.00    -0.329 N 
ATOM    117 HE21 GLN A   1      -0.750  -5.886  17.116  0.00  0.00    +0.145 HD
ATOM    118 HE22 GLN A   1      -1.361  -7.445  16.452  0.00  0.00    +0.145 HD
ENDBRANCH 113 114
ENDBRANCH 112 113
ENDBRANCH 109 112
ENDBRANCH 105 109
ENDBRANCH 104 106
BRANCH 104 119
ATOM    119  CB  THR A   2       4.898  -2.849  21.291  0.00  0.00    +0.137 C 
ATOM    120  CG2 THR A   2       4.343  -2.721  22.700  0.00  0.00    +0.034 C 
BRANCH 119 121
ATOM    121  OG1 THR A   2       5.734  -4.011  21.215  0.00  0.00    -0.382 OA
ATOM    122  HG1 THR A   2       6.470  -3.930  21.872  0.00  0.00    +0.210 HD
ENDBRANCH 119 121
ENDBRANCH 104 119
ENDBRANCH 100 104
ENDBRANCH  98 102
ENDBRANCH  94  98
ENDBRANCH  93  95
ENDBRANCH  89  93
ENDBRANCH  88  91
BRANCH  88 123
ATOM    123  CB  ARG A   5       2.688  -8.091  11.520  0.00  0.00    +0.033 C 
BRANCH 123 124
ATOM    124  CG  ARG A   5       3.808  -8.266  12.532  0.00  0.00    +0.045 C 
BRANCH 124 125
ATOM    125  CD  ARG A   5       4.991  -9.009  11.943  0.00  0.00    +0.174 C 
BRANCH 125 126
ATOM    126  NE  ARG A   5       4.663 -10.389  11.602  0.00  0.00    -0.265 N 
ATOM    127  CZ  ARG A   5       5.520 -11.399  11.697  0.00  0.00    +0.342 C 
ATOM    128  NH2 ARG A   5       6.755 -11.186  12.128  0.00  0.00    -0.292 N 
ATOM    129 HH21 ARG A   5       7.055 -10.226  12.393  0.00  0.00    +0.255 HD
ATOM    130 HH22 ARG A   5       7.424 -11.979  12.201  0.00  0.00    +0.255 HD
ATOM    131  NH1 ARG A   5       5.142 -12.624  11.363  0.00  0.00    -0.292 N 
ATOM    132 HH11 ARG A   5       5.814 -13.414  11.438  0.00  0.00    +0.255 HD
ATOM    133 HH12 ARG A   5       4.173 -12.796  11.026  0.00  0.00    +0.255 HD
ATOM    134  HE  ARG A   5       3.701 -10.594  11.264  0.00  0.00    +0.259 HD
ENDBRANCH 125 126
ENDBRANCH 124 125
ENDBRANCH 123 124
ENDBRANCH  88 123
ENDBRANCH  84  88
ENDBRANCH  83  86
ENDBRANCH  79  83
ENDBRANCH  78  81
BRANCH  78 135
ATOM    135  CB  ARG A   7      -1.907  -8.115   4.591  0.00  0.00    +0.033 C 
BRANCH 135 136
ATOM    136  CG  ARG A   7      -2.982  -8.830   5.391  0.00  0.00    +0.045 C 
BRANCH 136 137
ATOM    137  CD  ARG A   7      -4.034  -9.449   4.485  0.00  0.00    +0.174 C 
BRANCH 137 138
ATOM    138  NE  ARG A   7      -5.034  -8.484   4.039  0.00  0.00    -0.265 N 
ATOM    139  CZ  ARG A   7      -6.129  -8.170   4.726  0.00  0.00    +0.342 C 
ATOM    140  NH2 ARG A   7      -6.365  -8.734   5.903  0.00  0.00    -0.292 N 
ATOM    141 HH21 ARG A   7      -7.223  -8.485   6.436  0.00  0.00    +0.255 HD
ATOM    142 HH22 ARG A   7      -5.693  -9.425   6.293  0.00  0.00    +0.255 HD
ATOM    143  NH1 ARG A   7      -6.988  -7.285   4.239  0.00  0.00    -0.292 N 
ATOM    144 HH11 ARG A   7      -7.844  -7.040   4.777  0.00  0.00    +0.255 HD
ATOM    145 HH12 ARG A   7      -6.806  -6.836   3.319  0.00  0.00    +0.255 HD
ATOM    146  HE  ARG A   7      -4.881  -8.011   3.125  0.00  0.00    +0.259 HD
ENDBRANCH 137 138
ENDBRANCH 136 137
ENDBRANCH 135 136
ENDBRANCH  78 135
ENDBRANCH   1  78
TORSDOF 53
REMARK  Name = ../refined-set-2016/4xtz/4xtz_pocket.pdb
REMARK  235 active torsions:
REMARK  status: ('A' for Active; 'I' for Inactive)
REMARK    1  A    between atoms: _1  and  _3
REMARK    2  A    between atoms: _3  and  _4
REMARK    3  A    between atoms: _3  and  _6
REMARK    4  A    between atoms: _6  and  _7
REMARK    5  A    between atoms: _10  and  _12
REMARK    6  A    between atoms: _12  and  _13
REMARK    7  A    between atoms: _15  and  _17
REMARK    8  A    between atoms: _17  and  _18
REMARK    9  A    between atoms: _17  and  _20
REMARK   10  A    between atoms: _20  and  _21
REMARK   11  A    between atoms: _23  and  _25
REMARK   12  A    between atoms: _25  and  _26
REMARK   13  A    between atoms: _25  and  _28
REMARK   14  A    between atoms: _28  and  _29
REMARK   15  A    between atoms: _32  and  _34
REMARK   16  A    between atoms: _34  and  _35
REMARK   17  A    between atoms: _34  and  _37
REMARK   18  A    between atoms: _37  and  _38
REMARK   19  A    between atoms: _43  and  _45
REMARK   20  A    between atoms: _45  and  _46
REMARK   21  A    between atoms: _49  and  _51
REMARK   22  A    between atoms: _51  and  _52
REMARK   23  A    between atoms: _51  and  _54
REMARK   24  A    between atoms: _54  and  _55
REMARK   25  A    between atoms: _58  and  _60
REMARK   26  A    between atoms: _60  and  _61
REMARK   27  A    between atoms: _60  and  _63
REMARK   28  A    between atoms: _63  and  _64
REMARK   29  A    between atoms: _67  and  _69
REMARK   30  A    between atoms: _69  and  _70
REMARK   31  A    between atoms: _69  and  _72
REMARK   32  A    between atoms: _72  and  _73
REMARK   33  A    between atoms: _76  and  _78
REMARK   34  A    between atoms: _78  and  _79
REMARK   35  A    between atoms: _82  and  _84
REMARK   36  A    between atoms: _84  and  _85
REMARK   37  A    between atoms: _84  and  _87
REMARK   38  A    between atoms: _87  and  _88
REMARK   39  A    between atoms: _88  and  _89
REMARK   40  A    between atoms: _94  and  _96
REMARK   41  A    between atoms: _96  and  _97
REMARK   42  A    between atoms: _96  and  _99
REMARK   43  A    between atoms: _99  and  _100
REMARK   44  A    between atoms: _103  and  _105
REMARK   45  A    between atoms: _105  and  _106
REMARK   46  A    between atoms: _109  and  _111
REMARK   47  A    between atoms: _111  and  _112
REMARK   48  A    between atoms: _114  and  _116
REMARK   49  A    between atoms: _116  and  _117
REMARK   50  A    between atoms: _116  and  _119
REMARK   51  A    between atoms: _119  and  _120
REMARK   52  A    between atoms: _120  and  _121
REMARK   53  A    between atoms: _121  and  _122
REMARK   54  A    between atoms: _131  and  _133
REMARK   55  A    between atoms: _133  and  _134
REMARK   56  A    between atoms: _136  and  _138
REMARK   57  A    between atoms: _138  and  _139
REMARK   58  A    between atoms: _138  and  _141
REMARK   59  A    between atoms: _141  and  _142
REMARK   60  A    between atoms: _142  and  _143
REMARK   61  A    between atoms: _143  and  _144
REMARK   62  A    between atoms: _153  and  _155
REMARK   63  A    between atoms: _155  and  _156
REMARK   64  A    between atoms: _155  and  _158
REMARK   65  A    between atoms: _158  and  _159
REMARK   66  A    between atoms: _164  and  _166
REMARK   67  A    between atoms: _166  and  _167
REMARK   68  A    between atoms: _169  and  _171
REMARK   69  A    between atoms: _171  and  _172
REMARK   70  A    between atoms: _171  and  _174
REMARK   71  A    between atoms: _174  and  _175
REMARK   72  A    between atoms: _175  and  _176
REMARK   73  A    between atoms: _176  and  _177
REMARK   74  A    between atoms: _186  and  _188
REMARK   75  A    between atoms: _188  and  _189
REMARK   76  A    between atoms: _191  and  _193
REMARK   77  A    between atoms: _193  and  _194
REMARK   78  A    between atoms: _193  and  _196
REMARK   79  A    between atoms: _196  and  _197
REMARK   80  A    between atoms: _207  and  _209
REMARK   81  A    between atoms: _209  and  _210
REMARK   82  A    between atoms: _213  and  _215
REMARK   83  A    between atoms: _215  and  _216
REMARK   84  A    between atoms: _219  and  _221
REMARK   85  A    between atoms: _221  and  _222
REMARK   86  A    between atoms: _221  and  _224
REMARK   87  A    between atoms: _224  and  _225
REMARK   88  A    between atoms: _228  and  _230
REMARK   89  A    between atoms: _230  and  _231
REMARK   90  A    between atoms: _230  and  _233
REMARK   91  A    between atoms: _233  and  _234
REMARK   92  A    between atoms: _234  and  _235
REMARK   93  A    between atoms: _240  and  _242
REMARK   94  A    between atoms: _242  and  _243
REMARK   95  A    between atoms: _242  and  _245
REMARK   96  A    between atoms: _245  and  _246
REMARK   97  A    between atoms: _249  and  _251
REMARK   98  A    between atoms: _251  and  _252
REMARK   99  A    between atoms: _251  and  _254
REMARK  100  A    between atoms: _254  and  _255
REMARK  101  A    between atoms: _258  and  _260
REMARK  102  A    between atoms: _260  and  _261
REMARK  103  A    between atoms: _260  and  _263
REMARK  104  A    between atoms: _263  and  _264
REMARK  105  A    between atoms: _267  and  _269
REMARK  106  A    between atoms: _269  and  _270
REMARK  107  A    between atoms: _269  and  _272
REMARK  108  A    between atoms: _272  and  _273
REMARK  109  A    between atoms: _275  and  _277
REMARK  110  A    between atoms: _277  and  _278
REMARK  111  A    between atoms: _277  and  _280
REMARK  112  A    between atoms: _283  and  _285
REMARK  113  A    between atoms: _285  and  _286
REMARK  114  A    between atoms: _285  and  _288
REMARK  115  A    between atoms: _288  and  _289
REMARK  116  A    between atoms: _289  and  _290
REMARK  117  A    between atoms: _290  and  _291
REMARK  118  A    between atoms: _291  and  _292
REMARK  119  A    between atoms: _296  and  _298
REMARK  120  A    between atoms: _298  and  _299
REMARK  121  A    between atoms: _298  and  _301
REMARK  122  A    between atoms: _301  and  _302
REMARK  123  A    between atoms: _313  and  _314
REMARK  124  A    between atoms: _319  and  _321
REMARK  125  A    between atoms: _321  and  _322
REMARK  126  A    between atoms: _321  and  _324
REMARK  127  A    between atoms: _324  and  _325
REMARK  128  A    between atoms: _330  and  _332
REMARK  129  A    between atoms: _332  and  _333
REMARK  130  A    between atoms: _332  and  _335
REMARK  131  A    between atoms: _335  and  _336
REMARK  132  A    between atoms: _339  and  _341
REMARK  133  A    between atoms: _341  and  _342
REMARK  134  A    between atoms: _341  and  _344
REMARK  135  A    between atoms: _347  and  _349
REMARK  136  A    between atoms: _349  and  _350
REMARK  137  A    between atoms: _352  and  _354
REMARK  138  A    between atoms: _354  and  _355
REMARK  139  A    between atoms: _354  and  _357
REMARK  140  A    between atoms: _357  and  _358
REMARK  141  A    between atoms: _358  and  _359
REMARK  142  A    between atoms: _359  and  _360
REMARK  143  A    between atoms: _360  and  _361
REMARK  144  A    between atoms: _365  and  _367
REMARK  145  A    between atoms: _367  and  _368
REMARK  146  A    between atoms: _367  and  _370
REMARK  147  A    between atoms: _370  and  _371
REMARK  148  A    between atoms: _374  and  _376
REMARK  149  A    between atoms: _376  and  _377
REMARK  150  A    between atoms: _380  and  _382
REMARK  151  A    between atoms: _382  and  _383
REMARK  152  A    between atoms: _385  and  _387
REMARK  153  A    between atoms: _387  and  _388
REMARK  154  A    between atoms: _387  and  _390
REMARK  155  A    between atoms: _390  and  _391
REMARK  156  A    between atoms: _394  and  _396
REMARK  157  A    between atoms: _396  and  _397
REMARK  158  A    between atoms: _396  and  _399
REMARK  159  A    between atoms: _399  and  _400
REMARK  160  A    between atoms: _403  and  _405
REMARK  161  A    between atoms: _405  and  _406
REMARK  162  A    between atoms: _409  and  _411
REMARK  163  A    between atoms: _411  and  _412
REMARK  164  A    between atoms: _411  and  _414
REMARK  165  A    between atoms: _414  and  _415
REMARK  166  A    between atoms: _415  and  _416
REMARK  167  A    between atoms: _419  and  _421
REMARK  168  A    between atoms: _421  and  _422
REMARK  169  A    between atoms: _421  and  _424
REMARK  170  A    between atoms: _427  and  _429
REMARK  171  A    between atoms: _429  and  _430
REMARK  172  A    between atoms: _429  and  _432
REMARK  173  A    between atoms: _432  and  _433
REMARK  174  A    between atoms: _436  and  _438
REMARK  175  A    between atoms: _438  and  _439
REMARK  176  A    between atoms: _441  and  _443
REMARK  177  A    between atoms: _443  and  _444
REMARK  178  A    between atoms: _443  and  _446
REMARK  179  A    between atoms: _449  and  _451
REMARK  180  A    between atoms: _451  and  _452
REMARK  181  A    between atoms: _454  and  _456
REMARK  182  A    between atoms: _456  and  _457
REMARK  183  A    between atoms: _456  and  _459
REMARK  184  A    between atoms: _459  and  _460
REMARK  185  A    between atoms: _463  and  _465
REMARK  186  A    between atoms: _465  and  _466
REMARK  187  A    between atoms: _465  and  _468
REMARK  188  A    between atoms: _468  and  _469
REMARK  189  A    between atoms: _474  and  _476
REMARK  190  A    between atoms: _476  and  _477
REMARK  191  A    between atoms: _476  and  _479
REMARK  192  A    between atoms: _482  and  _484
REMARK  193  A    between atoms: _484  and  _485
REMARK  194  A    between atoms: _484  and  _487
REMARK  195  A    between atoms: _487  and  _488
REMARK  196  A    between atoms: _488  and  _489
REMARK  197  A    between atoms: _494  and  _496
REMARK  198  A    between atoms: _496  and  _497
REMARK  199  A    between atoms: _501  and  _502
REMARK  200  A    between atoms: _507  and  _509
REMARK  201  A    between atoms: _509  and  _510
REMARK  202  A    between atoms: _509  and  _512
REMARK  203  A    between atoms: _512  and  _513
REMARK  204  A    between atoms: _513  and  _514
REMARK  205  A    between atoms: _517  and  _519
REMARK  206  A    between atoms: _519  and  _520
REMARK  207  A    between atoms: _519  and  _522
REMARK  208  A    between atoms: _525  and  _527
REMARK  209  A    between atoms: _527  and  _528
REMARK  210  A    between atoms: _527  and  _530
REMARK  211  A    between atoms: _530  and  _531
REMARK  212  A    between atoms: _535  and  _536
REMARK  213  A    between atoms: _541  and  _543
REMARK  214  A    between atoms: _543  and  _544
REMARK  215  A    between atoms: _543  and  _546
REMARK  216  A    between atoms: _546  and  _547
REMARK  217  A    between atoms: _550  and  _552
REMARK  218  A    between atoms: _552  and  _553
REMARK  219  A    between atoms: _556  and  _558
REMARK  220  A    between atoms: _558  and  _559
REMARK  221  A    between atoms: _558  and  _561
REMARK  222  A    between atoms: _561  and  _562
REMARK  223  A    between atoms: _565  and  _567
REMARK  224  A    between atoms: _567  and  _568
REMARK  225  A    between atoms: _567  and  _570
REMARK  226  A    between atoms: _570  and  _571
REMARK  227  A    between atoms: _573  and  _575
REMARK  228  A    between atoms: _575  and  _576
REMARK  229  A    between atoms: _578  and  _580
REMARK  230  A    between atoms: _580  and  _581
REMARK  231  A    between atoms: _580  and  _583
REMARK  232  A    between atoms: _583  and  _584
REMARK  233  A    between atoms: _587  and  _589
REMARK  234  A    between atoms: _589  and  _590
REMARK  235  A    between atoms: _589  and  _592
REMARK                            x       y       z     vdW  Elec       q    Type
REMARK                         _______ _______ _______ _____ _____    ______ ____
ROOT
ATOM      1  CA  ILE A   3      -5.452  -9.386  20.012  0.00  0.00    +0.149 C 
ENDROOT
BRANCH   1   3
ATOM      2  C   ILE A   2      -7.808  -8.824  20.339  0.00  0.00    +0.241 C 
ATOM      3  N   ILE A   3      -6.620  -9.133  20.844  0.00  0.00    -0.297 N 
ATOM      4  H   ILE A   3      -6.519  -9.197  21.877  0.00  0.00    +0.150 HD
ATOM      5  O   ILE A   2      -8.033  -8.746  19.131  0.00  0.00    -0.273 OA
BRANCH   2   6
ATOM      6  CA  ILE A   2      -8.892  -8.512  21.360  0.00  0.00    +0.148 C 
BRANCH   6   9
ATOM      7  C   GLN A   1      -8.611  -6.194  21.968  0.00  0.00    +0.238 C 
ATOM      8  O   GLN A   1      -8.105  -6.454  23.059  0.00  0.00    -0.274 OA
ATOM      9  N   ILE A   2      -9.196  -7.104  21.201  0.00  0.00    -0.297 N 
ATOM     10  H   ILE A   2      -9.880  -6.804  20.478  0.00  0.00    +0.150 HD
BRANCH   7  11
ATOM     11  CA  GLN A   1      -8.602  -4.783  21.415  0.00  0.00    +0.145 C 
BRANCH  11  12
ATOM     12  N   GLN A   1      -8.262  -3.800  22.435  0.00  0.00    -0.238 NA
ATOM     13  H   GLN A   1      -7.412  -3.947  23.017  0.00  0.00    +0.142 HD
ENDBRANCH  11  12
BRANCH  11  14
ATOM     14  CB  GLN A   1      -7.610  -4.729  20.248  0.00  0.00    +0.036 C 
BRANCH  14  15
ATOM     15  CG  GLN A   1      -7.580  -3.436  19.467  0.00  0.00    +0.087 C 
BRANCH  15  16
ATOM     16  CD  GLN A   1      -6.562  -3.473  18.342  0.00  0.00    +0.219 C 
ATOM     17  NE2 GLN A   1      -5.956  -2.328  18.057  0.00  0.00    -0.329 N 
ATOM     18 HE21 GLN A   1      -6.195  -1.467  18.589  0.00  0.00    +0.145 HD
ATOM     19 HE22 GLN A   1      -5.242  -2.291  17.302  0.00  0.00    +0.145 HD
ATOM     20  OE1 GLN A   1      -6.316  -4.523  17.742  0.00  0.00    -0.275 OA
ENDBRANCH  15  16
ENDBRANCH  14  15
ENDBRANCH  11  14
ENDBRANCH   7  11
ENDBRANCH   6   9
BRANCH   6  21
ATOM     21  CB  ILE A   2     -10.117  -9.413  21.156  0.00  0.00    +0.027 C 
ATOM     22  CG2 ILE A   2      -9.688 -10.865  21.043  0.00  0.00    +0.002 C 
BRANCH  21  23
ATOM     23  CG1 ILE A   2     -11.083  -9.250  22.330  0.00  0.00    +0.002 C 
ATOM     24  CD1 ILE A   2     -12.378 -10.003  22.161  0.00  0.00    +0.000 C 
ENDBRANCH  21  23
ENDBRANCH   6  21
ENDBRANCH   2   6
ENDBRANCH   1   3
BRANCH   1  25
ATOM     25  C   ILE A   3      -4.994 -10.821  20.204  0.00  0.00    +0.241 C 
ATOM     26  O   ILE A   3      -4.441 -11.158  21.249  0.00  0.00    -0.273 OA
ATOM     27  N   LEU A   4      -5.218 -11.673  19.210  0.00  0.00    -0.297 N 
ATOM     28  H   LEU A   4      -5.643 -11.343  18.320  0.00  0.00    +0.150 HD
BRANCH  27  29
ATOM     29  CA  LEU A   4      -4.861 -13.074  19.382  0.00  0.00    +0.149 C 
BRANCH  29  30
ATOM     30  C   LEU A   4      -4.347 -13.746  18.121  0.00  0.00    +0.241 C 
ATOM     31  N   SER A   5      -3.589 -14.815  18.336  0.00  0.00    -0.295 N 
ATOM     32  H   SER A   5      -3.305 -15.034  19.312  0.00  0.00    +0.150 HD
ATOM     33  O   LEU A   4      -4.628 -13.318  17.000  0.00  0.00    -0.273 OA
BRANCH  31  34
ATOM     34  CA  SER A   5      -3.140 -15.691  17.271  0.00  0.00    +0.178 C 
BRANCH  34  35
ATOM     35  C   SER A   5      -3.454 -17.129  17.654  0.00  0.00    +0.243 C 
ATOM     36  O   SER A   5      -3.386 -17.490  18.830  0.00  0.00    -0.273 OA
ATOM     37  N   VAL A   6      -3.812 -17.942  16.666  0.00  0.00    -0.298 N 
ATOM     38  H   VAL A   6      -3.949 -17.554  15.711  0.00  0.00    +0.150 HD
BRANCH  37  39
ATOM     39  CA  VAL A   6      -4.016 -19.367  16.893  0.00  0.00    +0.137 C 
BRANCH  39  40
ATOM     40  CB  VAL A   6      -5.509 -19.766  16.815  0.00  0.00    +0.026 C 
ATOM     41  CG2 VAL A   6      -6.325 -19.011  17.861  0.00  0.00    +0.002 C 
ATOM     42  CG1 VAL A   6      -6.063 -19.522  15.419  0.00  0.00    +0.002 C 
ENDBRANCH  39  40
BRANCH  39  43
ATOM     43  C   VAL A   6      -3.218 -20.176  15.876  0.00  0.00    +0.227 C 
ATOM     44  O   VAL A   6      -2.968 -19.713  14.762  0.00  0.00    -0.286 OA
ENDBRANCH  39  43
ENDBRANCH  37  39
ENDBRANCH  34  35
BRANCH  34  45
ATOM     45  CB  SER A   5      -1.641 -15.522  17.013  0.00  0.00    +0.166 C 
BRANCH  45  46
ATOM     46  OG  SER A   5      -1.354 -14.253  16.455  0.00  0.00    -0.380 OA
ATOM     47  H   SER A   5      -1.835 -14.156  15.595  0.00  0.00    +0.211 HD
ENDBRANCH  45  46
ENDBRANCH  34  45
ENDBRANCH  31  34
ENDBRANCH  29  30
BRANCH  29  48
ATOM     48  CB  LEU A   4      -6.058 -13.864  19.931  0.00  0.00    +0.029 C 
BRANCH  48  49
ATOM     49  CG  LEU A   4      -7.370 -13.977  19.145  0.00  0.00    +0.002 C 
ATOM     50  CD2 LEU A   4      -8.522 -14.232  20.104  0.00  0.00    +0.000 C 
ATOM     51  CD1 LEU A   4      -7.323 -15.070  18.081  0.00  0.00    +0.000 C 
ENDBRANCH  48  49
ENDBRANCH  29  48
ENDBRANCH  27  29
ENDBRANCH   1  25
BRANCH   1  52
ATOM     52  CB  ILE A   3      -4.291  -8.429  20.365  0.00  0.00    +0.027 C 
ATOM     53  CG2 ILE A   3      -3.068  -8.722  19.514  0.00  0.00    +0.002 C 
BRANCH  52  54
ATOM     54  CG1 ILE A   3      -4.725  -6.969  20.215  0.00  0.00    +0.002 C 
ATOM     55  CD1 ILE A   3      -3.643  -5.977  20.587  0.00  0.00    +0.000 C 
ENDBRANCH  52  54
ENDBRANCH   1  52
TORSDOF 24
REMARK  Name = ../refined-set-2016/4xtz/4xtz_pocket.pdb
REMARK  235 active torsions:
REMARK  status: ('A' for Active; 'I' for Inactive)
REMARK    1  A    between atoms: _1  and  _3
REMARK    2  A    between atoms: _3  and  _4
REMARK    3  A    between atoms: _3  and  _6
REMARK    4  A    between atoms: _6  and  _7
REMARK    5  A    between atoms: _10  and  _12
REMARK    6  A    between atoms: _12  and  _13
REMARK    7  A    between atoms: _15  and  _17
REMARK    8  A    between atoms: _17  and  _18
REMARK    9  A    between atoms: _17  and  _20
REMARK   10  A    between atoms: _20  and  _21
REMARK   11  A    between atoms: _23  and  _25
REMARK   12  A    between atoms: _25  and  _26
REMARK   13  A    between atoms: _25  and  _28
REMARK   14  A    between atoms: _28  and  _29
REMARK   15  A    between atoms: _32  and  _34
REMARK   16  A    between atoms: _34  and  _35
REMARK   17  A    between atoms: _34  and  _37
REMARK   18  A    between atoms: _37  and  _38
REMARK   19  A    between atoms: _43  and  _45
REMARK   20  A    between atoms: _45  and  _46
REMARK   21  A    between atoms: _49  and  _51
REMARK   22  A    between atoms: _51  and  _52
REMARK   23  A    between atoms: _51  and  _54
REMARK   24  A    between atoms: _54  and  _55
REMARK   25  A    between atoms: _58  and  _60
REMARK   26  A    between atoms: _60  and  _61
REMARK   27  A    between atoms: _60  and  _63
REMARK   28  A    between atoms: _63  and  _64
REMARK   29  A    between atoms: _67  and  _69
REMARK   30  A    between atoms: _69  and  _70
REMARK   31  A    between atoms: _69  and  _72
REMARK   32  A    between atoms: _72  and  _73
REMARK   33  A    between atoms: _76  and  _78
REMARK   34  A    between atoms: _78  and  _79
REMARK   35  A    between atoms: _82  and  _84
REMARK   36  A    between atoms: _84  and  _85
REMARK   37  A    between atoms: _84  and  _87
REMARK   38  A    between atoms: _87  and  _88
REMARK   39  A    between atoms: _88  and  _89
REMARK   40  A    between atoms: _94  and  _96
REMARK   41  A    between atoms: _96  and  _97
REMARK   42  A    between atoms: _96  and  _99
REMARK   43  A    between atoms: _99  and  _100
REMARK   44  A    between atoms: _103  and  _105
REMARK   45  A    between atoms: _105  and  _106
REMARK   46  A    between atoms: _109  and  _111
REMARK   47  A    between atoms: _111  and  _112
REMARK   48  A    between atoms: _114  and  _116
REMARK   49  A    between atoms: _116  and  _117
REMARK   50  A    between atoms: _116  and  _119
REMARK   51  A    between atoms: _119  and  _120
REMARK   52  A    between atoms: _120  and  _121
REMARK   53  A    between atoms: _121  and  _122
REMARK   54  A    between atoms: _131  and  _133
REMARK   55  A    between atoms: _133  and  _134
REMARK   56  A    between atoms: _136  and  _138
REMARK   57  A    between atoms: _138  and  _139
REMARK   58  A    between atoms: _138  and  _141
REMARK   59  A    between atoms: _141  and  _142
REMARK   60  A    between atoms: _142  and  _143
REMARK   61  A    between atoms: _143  and  _144
REMARK   62  A    between atoms: _153  and  _155
REMARK   63  A    between atoms: _155  and  _156
REMARK   64  A    between atoms: _155  and  _158
REMARK   65  A    between atoms: _158  and  _159
REMARK   66  A    between atoms: _164  and  _166
REMARK   67  A    between atoms: _166  and  _167
REMARK   68  A    between atoms: _169  and  _171
REMARK   69  A    between atoms: _171  and  _172
REMARK   70  A    between atoms: _171  and  _174
REMARK   71  A    between atoms: _174  and  _175
REMARK   72  A    between atoms: _175  and  _176
REMARK   73  A    between atoms: _176  and  _177
REMARK   74  A    between atoms: _186  and  _188
REMARK   75  A    between atoms: _188  and  _189
REMARK   76  A    between atoms: _191  and  _193
REMARK   77  A    between atoms: _193  and  _194
REMARK   78  A    between atoms: _193  and  _196
REMARK   79  A    between atoms: _196  and  _197
REMARK   80  A    between atoms: _207  and  _209
REMARK   81  A    between atoms: _209  and  _210
REMARK   82  A    between atoms: _213  and  _215
REMARK   83  A    between atoms: _215  and  _216
REMARK   84  A    between atoms: _219  and  _221
REMARK   85  A    between atoms: _221  and  _222
REMARK   86  A    between atoms: _221  and  _224
REMARK   87  A    between atoms: _224  and  _225
REMARK   88  A    between atoms: _228  and  _230
REMARK   89  A    between atoms: _230  and  _231
REMARK   90  A    between atoms: _230  and  _233
REMARK   91  A    between atoms: _233  and  _234
REMARK   92  A    between atoms: _234  and  _235
REMARK   93  A    between atoms: _240  and  _242
REMARK   94  A    between atoms: _242  and  _243
REMARK   95  A    between atoms: _242  and  _245
REMARK   96  A    between atoms: _245  and  _246
REMARK   97  A    between atoms: _249  and  _251
REMARK   98  A    between atoms: _251  and  _252
REMARK   99  A    between atoms: _251  and  _254
REMARK  100  A    between atoms: _254  and  _255
REMARK  101  A    between atoms: _258  and  _260
REMARK  102  A    between atoms: _260  and  _261
REMARK  103  A    between atoms: _260  and  _263
REMARK  104  A    between atoms: _263  and  _264
REMARK  105  A    between atoms: _267  and  _269
REMARK  106  A    between atoms: _269  and  _270
REMARK  107  A    between atoms: _269  and  _272
REMARK  108  A    between atoms: _272  and  _273
REMARK  109  A    between atoms: _275  and  _277
REMARK  110  A    between atoms: _277  and  _278
REMARK  111  A    between atoms: _277  and  _280
REMARK  112  A    between atoms: _283  and  _285
REMARK  113  A    between atoms: _285  and  _286
REMARK  114  A    between atoms: _285  and  _288
REMARK  115  A    between atoms: _288  and  _289
REMARK  116  A    between atoms: _289  and  _290
REMARK  117  A    between atoms: _290  and  _291
REMARK  118  A    between atoms: _291  and  _292
REMARK  119  A    between atoms: _296  and  _298
REMARK  120  A    between atoms: _298  and  _299
REMARK  121  A    between atoms: _298  and  _301
REMARK  122  A    between atoms: _301  and  _302
REMARK  123  A    between atoms: _313  and  _314
REMARK  124  A    between atoms: _319  and  _321
REMARK  125  A    between atoms: _321  and  _322
REMARK  126  A    between atoms: _321  and  _324
REMARK  127  A    between atoms: _324  and  _325
REMARK  128  A    between atoms: _330  and  _332
REMARK  129  A    between atoms: _332  and  _333
REMARK  130  A    between atoms: _332  and  _335
REMARK  131  A    between atoms: _335  and  _336
REMARK  132  A    between atoms: _339  and  _341
REMARK  133  A    between atoms: _341  and  _342
REMARK  134  A    between atoms: _341  and  _344
REMARK  135  A    between atoms: _347  and  _349
REMARK  136  A    between atoms: _349  and  _350
REMARK  137  A    between atoms: _352  and  _354
REMARK  138  A    between atoms: _354  and  _355
REMARK  139  A    between atoms: _354  and  _357
REMARK  140  A    between atoms: _357  and  _358
REMARK  141  A    between atoms: _358  and  _359
REMARK  142  A    between atoms: _359  and  _360
REMARK  143  A    between atoms: _360  and  _361
REMARK  144  A    between atoms: _365  and  _367
REMARK  145  A    between atoms: _367  and  _368
REMARK  146  A    between atoms: _367  and  _370
REMARK  147  A    between atoms: _370  and  _371
REMARK  148  A    between atoms: _374  and  _376
REMARK  149  A    between atoms: _376  and  _377
REMARK  150  A    between atoms: _380  and  _382
REMARK  151  A    between atoms: _382  and  _383
REMARK  152  A    between atoms: _385  and  _387
REMARK  153  A    between atoms: _387  and  _388
REMARK  154  A    between atoms: _387  and  _390
REMARK  155  A    between atoms: _390  and  _391
REMARK  156  A    between atoms: _394  and  _396
REMARK  157  A    between atoms: _396  and  _397
REMARK  158  A    between atoms: _396  and  _399
REMARK  159  A    between atoms: _399  and  _400
REMARK  160  A    between atoms: _403  and  _405
REMARK  161  A    between atoms: _405  and  _406
REMARK  162  A    between atoms: _409  and  _411
REMARK  163  A    between atoms: _411  and  _412
REMARK  164  A    between atoms: _411  and  _414
REMARK  165  A    between atoms: _414  and  _415
REMARK  166  A    between atoms: _415  and  _416
REMARK  167  A    between atoms: _419  and  _421
REMARK  168  A    between atoms: _421  and  _422
REMARK  169  A    between atoms: _421  and  _424
REMARK  170  A    between atoms: _427  and  _429
REMARK  171  A    between atoms: _429  and  _430
REMARK  172  A    between atoms: _429  and  _432
REMARK  173  A    between atoms: _432  and  _433
REMARK  174  A    between atoms: _436  and  _438
REMARK  175  A    between atoms: _438  and  _439
REMARK  176  A    between atoms: _441  and  _443
REMARK  177  A    between atoms: _443  and  _444
REMARK  178  A    between atoms: _443  and  _446
REMARK  179  A    between atoms: _449  and  _451
REMARK  180  A    between atoms: _451  and  _452
REMARK  181  A    between atoms: _454  and  _456
REMARK  182  A    between atoms: _456  and  _457
REMARK  183  A    between atoms: _456  and  _459
REMARK  184  A    between atoms: _459  and  _460
REMARK  185  A    between atoms: _463  and  _465
REMARK  186  A    between atoms: _465  and  _466
REMARK  187  A    between atoms: _465  and  _468
REMARK  188  A    between atoms: _468  and  _469
REMARK  189  A    between atoms: _474  and  _476
REMARK  190  A    between atoms: _476  and  _477
REMARK  191  A    between atoms: _476  and  _479
REMARK  192  A    between atoms: _482  and  _484
REMARK  193  A    between atoms: _484  and  _485
REMARK  194  A    between atoms: _484  and  _487
REMARK  195  A    between atoms: _487  and  _488
REMARK  196  A    between atoms: _488  and  _489
REMARK  197  A    between atoms: _494  and  _496
REMARK  198  A    between atoms: _496  and  _497
REMARK  199  A    between atoms: _501  and  _502
REMARK  200  A    between atoms: _507  and  _509
REMARK  201  A    between atoms: _509  and  _510
REMARK  202  A    between atoms: _509  and  _512
REMARK  203  A    between atoms: _512  and  _513
REMARK  204  A    between atoms: _513  and  _514
REMARK  205  A    between atoms: _517  and  _519
REMARK  206  A    between atoms: _519  and  _520
REMARK  207  A    between atoms: _519  and  _522
REMARK  208  A    between atoms: _525  and  _527
REMARK  209  A    between atoms: _527  and  _528
REMARK  210  A    between atoms: _527  and  _530
REMARK  211  A    between atoms: _530  and  _531
REMARK  212  A    between atoms: _535  and  _536
REMARK  213  A    between atoms: _541  and  _543
REMARK  214  A    between atoms: _543  and  _544
REMARK  215  A    between atoms: _543  and  _546
REMARK  216  A    between atoms: _546  and  _547
REMARK  217  A    between atoms: _550  and  _552
REMARK  218  A    between atoms: _552  and  _553
REMARK  219  A    between atoms: _556  and  _558
REMARK  220  A    between atoms: _558  and  _559
REMARK  221  A    between atoms: _558  and  _561
REMARK  222  A    between atoms: _561  and  _562
REMARK  223  A    between atoms: _565  and  _567
REMARK  224  A    between atoms: _567  and  _568
REMARK  225  A    between atoms: _567  and  _570
REMARK  226  A    between atoms: _570  and  _571
REMARK  227  A    between atoms: _573  and  _575
REMARK  228  A    between atoms: _575  and  _576
REMARK  229  A    between atoms: _578  and  _580
REMARK  230  A    between atoms: _580  and  _581
REMARK  231  A    between atoms: _580  and  _583
REMARK  232  A    between atoms: _583  and  _584
REMARK  233  A    between atoms: _587  and  _589
REMARK  234  A    between atoms: _589  and  _590
REMARK  235  A    between atoms: _589  and  _592
REMARK                            x       y       z     vdW  Elec       q    Type
REMARK                         _______ _______ _______ _____ _____    ______ ____
ROOT
ATOM      1  C   TRP A   2     -10.933  -8.636   0.700  0.00  0.00    +0.244 C 
ATOM      2  N   PRO A   3      -9.964  -9.425   1.197  0.00  0.00    -0.272 N 
ATOM      3  CA  PRO A   3     -10.113 -10.840   1.571  0.00  0.00    +0.152 C 
ATOM      4  CB  PRO A   3      -8.670 -11.291   1.828  0.00  0.00    +0.031 C 
ATOM      5  CG  PRO A   3      -7.914 -10.042   2.100  0.00  0.00    +0.024 C 
ATOM      6  CD  PRO A   3      -8.564  -8.978   1.280  0.00  0.00    +0.094 C 
ATOM      7  O   TRP A   2     -10.734  -7.467   0.376  0.00  0.00    -0.273 OA
ENDROOT
BRANCH   3   8
ATOM      8  C   PRO A   3     -10.976 -11.065   2.820  0.00  0.00    +0.241 C 
ATOM      9  N   ASN A   4     -10.619 -10.451   3.944  0.00  0.00    -0.297 N 
ATOM     10  H   ASN A   4      -9.835  -9.768   3.935  0.00  0.00    +0.150 HD
ATOM     11  O   PRO A   3     -11.974 -11.774   2.743  0.00  0.00    -0.273 OA
BRANCH   9  12
ATOM     12  CA  ASN A   4     -11.323 -10.731   5.190  0.00  0.00    +0.158 C 
BRANCH  12  13
ATOM     13  C   ASN A   4     -11.334  -9.612   6.227  0.00  0.00    +0.241 C 
ATOM     14  O   ASN A   4     -11.407  -9.878   7.422  0.00  0.00    -0.273 OA
ATOM     15  N   ASP A   5     -11.255  -8.369   5.760  0.00  0.00    -0.297 N 
ATOM     16  H   ASP A   5     -10.990  -8.209   4.767  0.00  0.00    +0.150 HD
BRANCH  15  17
ATOM     17  CA  ASP A   5     -11.535  -7.230   6.622  0.00  0.00    +0.160 C 
BRANCH  17  18
ATOM     18  C   ASP A   5     -12.948  -7.364   7.181  0.00  0.00    +0.241 C 
ATOM     19  N   VAL A   6     -13.120  -7.120   8.477  0.00  0.00    -0.298 N 
ATOM     20  H   VAL A   6     -12.293  -6.984   9.093  0.00  0.00    +0.150 HD
ATOM     21  O   ASP A   5     -13.872  -7.701   6.444  0.00  0.00    -0.273 OA
BRANCH  19  22
ATOM     22  CA  VAL A   6     -14.462  -7.043   9.035  0.00  0.00    +0.137 C 
BRANCH  22  23
ATOM     23  CB  VAL A   6     -14.551  -7.673  10.437  0.00  0.00    +0.026 C 
ATOM     24  CG2 VAL A   6     -15.972  -7.557  10.976  0.00  0.00    +0.002 C 
ATOM     25  CG1 VAL A   6     -14.115  -9.131  10.394  0.00  0.00    +0.002 C 
ENDBRANCH  22  23
BRANCH  22  26
ATOM     26  C   VAL A   6     -14.873  -5.579   9.088  0.00  0.00    +0.227 C 
ATOM     27  O   VAL A   6     -14.254  -4.777   9.790  0.00  0.00    -0.286 OA
ENDBRANCH  22  26
ENDBRANCH  19  22
ENDBRANCH  17  18
BRANCH  17  28
ATOM     28  CB  ASP A   5     -11.411  -5.902   5.868  0.00  0.00    +0.143 C 
BRANCH  28  29
ATOM     29  CG  ASP A   5      -9.971  -5.464   5.671  0.00  0.00    +0.367 C 
ATOM     30  OD2 ASP A   5      -9.046  -6.252   5.968  0.00  0.00    -0.246 OA
ATOM     31  OD1 ASP A   5      -9.770  -4.319   5.217  0.00  0.00    -0.246 OA
ENDBRANCH  28  29
ENDBRANCH  17  28
ENDBRANCH  15  17
ENDBRANCH  12  13
BRANCH  12  32
ATOM     32  CB  ASN A   4     -10.741 -12.020   5.786  0.00  0.00    +0.114 C 
BRANCH  32  33
ATOM     33  CG  ASN A   4      -9.272 -11.894   6.130  0.00  0.00    +0.222 C 
ATOM     34  ND2 ASN A   4      -8.658 -13.008   6.516  0.00  0.00    -0.329 N 
ATOM     35 HD21 ASN A   4      -7.645 -12.989   6.752  0.00  0.00    +0.145 HD
ATOM     36 HD22 ASN A   4      -9.190 -13.899   6.582  0.00  0.00    +0.145 HD
ATOM     37  OD1 ASN A   4      -8.688 -10.810   6.034  0.00  0.00    -0.275 OA
ENDBRANCH  32  33
ENDBRANCH  12  32
ENDBRANCH   9  12
ENDBRANCH   3   8
BRANCH   1  38
ATOM     38  CA  TRP A   2     -12.323  -9.250   0.549  0.00  0.00    +0.153 C 
BRANCH  38  41
ATOM     39  C   LYS A   1     -13.398  -7.925   2.282  0.00  0.00    +0.238 C 
ATOM     40  O   LYS A   1     -12.574  -8.270   3.129  0.00  0.00    -0.274 OA
ATOM     41  N   TRP A   2     -13.349  -8.323   1.014  0.00  0.00    -0.297 N 
ATOM     42  H   TRP A   2     -14.056  -7.966   0.340  0.00  0.00    +0.150 HD
BRANCH  39  43
ATOM     43  CA  LYS A   1     -14.550  -7.011   2.662  0.00  0.00    +0.145 C 
BRANCH  43  44
ATOM     44  N   LYS A   1     -15.183  -7.528   3.869  0.00  0.00    -0.238 NA
ATOM     45  H   LYS A   1     -14.763  -7.316   4.796  0.00  0.00    +0.142 HD
ENDBRANCH  43  44
BRANCH  43  46
ATOM     46  CB  LYS A   1     -14.050  -5.577   2.856  0.00  0.00    +0.026 C 
BRANCH  46  47
ATOM     47  CG  LYS A   1     -13.347  -5.017   1.624  0.00  0.00    -0.000 C 
BRANCH  47  48
ATOM     48  CD  LYS A   1     -13.161  -3.509   1.702  0.00  0.00    -0.024 C 
BRANCH  48  49
ATOM     49  CE  LYS A   1     -11.936  -3.134   2.520  0.00  0.00    -0.086 C 
BRANCH  49  50
ATOM     50  NZ  LYS A   1     -11.612  -1.686   2.376  0.00  0.00    +0.380 N 
ATOM     51  HZ1 LYS A   1     -10.772  -1.462   2.946  0.00  0.00    -0.089 HD
ATOM     52  HZ2 LYS A   1     -12.418  -1.117   2.706  0.00  0.00    -0.089 HD
ATOM     53  HZ3 LYS A   1     -11.421  -1.472   1.376  0.00  0.00    -0.089 HD
ENDBRANCH  49  50
ENDBRANCH  48  49
ENDBRANCH  47  48
ENDBRANCH  46  47
ENDBRANCH  43  46
ENDBRANCH  39  43
ENDBRANCH  38  41
BRANCH  38  54
ATOM     54  CB  TRP A   2     -12.567  -9.659  -0.905  0.00  0.00    +0.057 C 
BRANCH  54  55
ATOM     55  CG  TRP A   2     -11.653 -10.760  -1.358  0.00  0.00    -0.002 A 
ATOM     56  CD1 TRP A   2     -11.893 -12.102  -1.295  0.00  0.00    +0.068 A 
ATOM     57  NE1 TRP A   2     -10.818 -12.801  -1.790  0.00  0.00    -0.352 N 
ATOM     58  HE1 TRP A   2     -10.750 -13.836  -1.858  0.00  0.00    +0.166 HD
ATOM     59  CE2 TRP A   2      -9.851 -11.911  -2.179  0.00  0.00    +0.056 A 
ATOM     60  CZ2 TRP A   2      -8.594 -12.136  -2.738  0.00  0.00    +0.017 A 
ATOM     61  CH2 TRP A   2      -7.829 -11.041  -3.032  0.00  0.00    +0.001 A 
ATOM     62  CZ3 TRP A   2      -8.286  -9.741  -2.783  0.00  0.00    +0.000 A 
ATOM     63  CE3 TRP A   2      -9.534  -9.515  -2.228  0.00  0.00    +0.001 A 
ATOM     64  CD2 TRP A   2     -10.340 -10.615  -1.918  0.00  0.00    +0.013 A 
ENDBRANCH  54  55
ENDBRANCH  38  54
ENDBRANCH   1  38
TORSDOF 23
REMARK  Name = ../refined-set-2016/4xtz/4xtz_pocket.pdb
REMARK  235 active torsions:
REMARK  status: ('A' for Active; 'I' for Inactive)
REMARK    1  A    between atoms: _1  and  _3
REMARK    2  A    between atoms: _3  and  _4
REMARK    3  A    between atoms: _3  and  _6
REMARK    4  A    between atoms: _6  and  _7
REMARK    5  A    between atoms: _10  and  _12
REMARK    6  A    between atoms: _12  and  _13
REMARK    7  A    between atoms: _15  and  _17
REMARK    8  A    between atoms: _17  and  _18
REMARK    9  A    between atoms: _17  and  _20
REMARK   10  A    between atoms: _20  and  _21
REMARK   11  A    between atoms: _23  and  _25
REMARK   12  A    between atoms: _25  and  _26
REMARK   13  A    between atoms: _25  and  _28
REMARK   14  A    between atoms: _28  and  _29
REMARK   15  A    between atoms: _32  and  _34
REMARK   16  A    between atoms: _34  and  _35
REMARK   17  A    between atoms: _34  and  _37
REMARK   18  A    between atoms: _37  and  _38
REMARK   19  A    between atoms: _43  and  _45
REMARK   20  A    between atoms: _45  and  _46
REMARK   21  A    between atoms: _49  and  _51
REMARK   22  A    between atoms: _51  and  _52
REMARK   23  A    between atoms: _51  and  _54
REMARK   24  A    between atoms: _54  and  _55
REMARK   25  A    between atoms: _58  and  _60
REMARK   26  A    between atoms: _60  and  _61
REMARK   27  A    between atoms: _60  and  _63
REMARK   28  A    between atoms: _63  and  _64
REMARK   29  A    between atoms: _67  and  _69
REMARK   30  A    between atoms: _69  and  _70
REMARK   31  A    between atoms: _69  and  _72
REMARK   32  A    between atoms: _72  and  _73
REMARK   33  A    between atoms: _76  and  _78
REMARK   34  A    between atoms: _78  and  _79
REMARK   35  A    between atoms: _82  and  _84
REMARK   36  A    between atoms: _84  and  _85
REMARK   37  A    between atoms: _84  and  _87
REMARK   38  A    between atoms: _87  and  _88
REMARK   39  A    between atoms: _88  and  _89
REMARK   40  A    between atoms: _94  and  _96
REMARK   41  A    between atoms: _96  and  _97
REMARK   42  A    between atoms: _96  and  _99
REMARK   43  A    between atoms: _99  and  _100
REMARK   44  A    between atoms: _103  and  _105
REMARK   45  A    between atoms: _105  and  _106
REMARK   46  A    between atoms: _109  and  _111
REMARK   47  A    between atoms: _111  and  _112
REMARK   48  A    between atoms: _114  and  _116
REMARK   49  A    between atoms: _116  and  _117
REMARK   50  A    between atoms: _116  and  _119
REMARK   51  A    between atoms: _119  and  _120
REMARK   52  A    between atoms: _120  and  _121
REMARK   53  A    between atoms: _121  and  _122
REMARK   54  A    between atoms: _131  and  _133
REMARK   55  A    between atoms: _133  and  _134
REMARK   56  A    between atoms: _136  and  _138
REMARK   57  A    between atoms: _138  and  _139
REMARK   58  A    between atoms: _138  and  _141
REMARK   59  A    between atoms: _141  and  _142
REMARK   60  A    between atoms: _142  and  _143
REMARK   61  A    between atoms: _143  and  _144
REMARK   62  A    between atoms: _153  and  _155
REMARK   63  A    between atoms: _155  and  _156
REMARK   64  A    between atoms: _155  and  _158
REMARK   65  A    between atoms: _158  and  _159
REMARK   66  A    between atoms: _164  and  _166
REMARK   67  A    between atoms: _166  and  _167
REMARK   68  A    between atoms: _169  and  _171
REMARK   69  A    between atoms: _171  and  _172
REMARK   70  A    between atoms: _171  and  _174
REMARK   71  A    between atoms: _174  and  _175
REMARK   72  A    between atoms: _175  and  _176
REMARK   73  A    between atoms: _176  and  _177
REMARK   74  A    between atoms: _186  and  _188
REMARK   75  A    between atoms: _188  and  _189
REMARK   76  A    between atoms: _191  and  _193
REMARK   77  A    between atoms: _193  and  _194
REMARK   78  A    between atoms: _193  and  _196
REMARK   79  A    between atoms: _196  and  _197
REMARK   80  A    between atoms: _207  and  _209
REMARK   81  A    between atoms: _209  and  _210
REMARK   82  A    between atoms: _213  and  _215
REMARK   83  A    between atoms: _215  and  _216
REMARK   84  A    between atoms: _219  and  _221
REMARK   85  A    between atoms: _221  and  _222
REMARK   86  A    between atoms: _221  and  _224
REMARK   87  A    between atoms: _224  and  _225
REMARK   88  A    between atoms: _228  and  _230
REMARK   89  A    between atoms: _230  and  _231
REMARK   90  A    between atoms: _230  and  _233
REMARK   91  A    between atoms: _233  and  _234
REMARK   92  A    between atoms: _234  and  _235
REMARK   93  A    between atoms: _240  and  _242
REMARK   94  A    between atoms: _242  and  _243
REMARK   95  A    between atoms: _242  and  _245
REMARK   96  A    between atoms: _245  and  _246
REMARK   97  A    between atoms: _249  and  _251
REMARK   98  A    between atoms: _251  and  _252
REMARK   99  A    between atoms: _251  and  _254
REMARK  100  A    between atoms: _254  and  _255
REMARK  101  A    between atoms: _258  and  _260
REMARK  102  A    between atoms: _260  and  _261
REMARK  103  A    between atoms: _260  and  _263
REMARK  104  A    between atoms: _263  and  _264
REMARK  105  A    between atoms: _267  and  _269
REMARK  106  A    between atoms: _269  and  _270
REMARK  107  A    between atoms: _269  and  _272
REMARK  108  A    between atoms: _272  and  _273
REMARK  109  A    between atoms: _275  and  _277
REMARK  110  A    between atoms: _277  and  _278
REMARK  111  A    between atoms: _277  and  _280
REMARK  112  A    between atoms: _283  and  _285
REMARK  113  A    between atoms: _285  and  _286
REMARK  114  A    between atoms: _285  and  _288
REMARK  115  A    between atoms: _288  and  _289
REMARK  116  A    between atoms: _289  and  _290
REMARK  117  A    between atoms: _290  and  _291
REMARK  118  A    between atoms: _291  and  _292
REMARK  119  A    between atoms: _296  and  _298
REMARK  120  A    between atoms: _298  and  _299
REMARK  121  A    between atoms: _298  and  _301
REMARK  122  A    between atoms: _301  and  _302
REMARK  123  A    between atoms: _313  and  _314
REMARK  124  A    between atoms: _319  and  _321
REMARK  125  A    between atoms: _321  and  _322
REMARK  126  A    between atoms: _321  and  _324
REMARK  127  A    between atoms: _324  and  _325
REMARK  128  A    between atoms: _330  and  _332
REMARK  129  A    between atoms: _332  and  _333
REMARK  130  A    between atoms: _332  and  _335
REMARK  131  A    between atoms: _335  and  _336
REMARK  132  A    between atoms: _339  and  _341
REMARK  133  A    between atoms: _341  and  _342
REMARK  134  A    between atoms: _341  and  _344
REMARK  135  A    between atoms: _347  and  _349
REMARK  136  A    between atoms: _349  and  _350
REMARK  137  A    between atoms: _352  and  _354
REMARK  138  A    between atoms: _354  and  _355
REMARK  139  A    between atoms: _354  and  _357
REMARK  140  A    between atoms: _357  and  _358
REMARK  141  A    between atoms: _358  and  _359
REMARK  142  A    between atoms: _359  and  _360
REMARK  143  A    between atoms: _360  and  _361
REMARK  144  A    between atoms: _365  and  _367
REMARK  145  A    between atoms: _367  and  _368
REMARK  146  A    between atoms: _367  and  _370
REMARK  147  A    between atoms: _370  and  _371
REMARK  148  A    between atoms: _374  and  _376
REMARK  149  A    between atoms: _376  and  _377
REMARK  150  A    between atoms: _380  and  _382
REMARK  151  A    between atoms: _382  and  _383
REMARK  152  A    between atoms: _385  and  _387
REMARK  153  A    between atoms: _387  and  _388
REMARK  154  A    between atoms: _387  and  _390
REMARK  155  A    between atoms: _390  and  _391
REMARK  156  A    between atoms: _394  and  _396
REMARK  157  A    between atoms: _396  and  _397
REMARK  158  A    between atoms: _396  and  _399
REMARK  159  A    between atoms: _399  and  _400
REMARK  160  A    between atoms: _403  and  _405
REMARK  161  A    between atoms: _405  and  _406
REMARK  162  A    between atoms: _409  and  _411
REMARK  163  A    between atoms: _411  and  _412
REMARK  164  A    between atoms: _411  and  _414
REMARK  165  A    between atoms: _414  and  _415
REMARK  166  A    between atoms: _415  and  _416
REMARK  167  A    between atoms: _419  and  _421
REMARK  168  A    between atoms: _421  and  _422
REMARK  169  A    between atoms: _421  and  _424
REMARK  170  A    between atoms: _427  and  _429
REMARK  171  A    between atoms: _429  and  _430
REMARK  172  A    between atoms: _429  and  _432
REMARK  173  A    between atoms: _432  and  _433
REMARK  174  A    between atoms: _436  and  _438
REMARK  175  A    between atoms: _438  and  _439
REMARK  176  A    between atoms: _441  and  _443
REMARK  177  A    between atoms: _443  and  _444
REMARK  178  A    between atoms: _443  and  _446
REMARK  179  A    between atoms: _449  and  _451
REMARK  180  A    between atoms: _451  and  _452
REMARK  181  A    between atoms: _454  and  _456
REMARK  182  A    between atoms: _456  and  _457
REMARK  183  A    between atoms: _456  and  _459
REMARK  184  A    between atoms: _459  and  _460
REMARK  185  A    between atoms: _463  and  _465
REMARK  186  A    between atoms: _465  and  _466
REMARK  187  A    between atoms: _465  and  _468
REMARK  188  A    between atoms: _468  and  _469
REMARK  189  A    between atoms: _474  and  _476
REMARK  190  A    between atoms: _476  and  _477
REMARK  191  A    between atoms: _476  and  _479
REMARK  192  A    between atoms: _482  and  _484
REMARK  193  A    between atoms: _484  and  _485
REMARK  194  A    between atoms: _484  and  _487
REMARK  195  A    between atoms: _487  and  _488
REMARK  196  A    between atoms: _488  and  _489
REMARK  197  A    between atoms: _494  and  _496
REMARK  198  A    between atoms: _496  and  _497
REMARK  199  A    between atoms: _501  and  _502
REMARK  200  A    between atoms: _507  and  _509
REMARK  201  A    between atoms: _509  and  _510
REMARK  202  A    between atoms: _509  and  _512
REMARK  203  A    between atoms: _512  and  _513
REMARK  204  A    between atoms: _513  and  _514
REMARK  205  A    between atoms: _517  and  _519
REMARK  206  A    between atoms: _519  and  _520
REMARK  207  A    between atoms: _519  and  _522
REMARK  208  A    between atoms: _525  and  _527
REMARK  209  A    between atoms: _527  and  _528
REMARK  210  A    between atoms: _527  and  _530
REMARK  211  A    between atoms: _530  and  _531
REMARK  212  A    between atoms: _535  and  _536
REMARK  213  A    between atoms: _541  and  _543
REMARK  214  A    between atoms: _543  and  _544
REMARK  215  A    between atoms: _543  and  _546
REMARK  216  A    between atoms: _546  and  _547
REMARK  217  A    between atoms: _550  and  _552
REMARK  218  A    between atoms: _552  and  _553
REMARK  219  A    between atoms: _556  and  _558
REMARK  220  A    between atoms: _558  and  _559
REMARK  221  A    between atoms: _558  and  _561
REMARK  222  A    between atoms: _561  and  _562
REMARK  223  A    between atoms: _565  and  _567
REMARK  224  A    between atoms: _567  and  _568
REMARK  225  A    between atoms: _567  and  _570
REMARK  226  A    between atoms: _570  and  _571
REMARK  227  A    between atoms: _573  and  _575
REMARK  228  A    between atoms: _575  and  _576
REMARK  229  A    between atoms: _578  and  _580
REMARK  230  A    between atoms: _580  and  _581
REMARK  231  A    between atoms: _580  and  _583
REMARK  232  A    between atoms: _583  and  _584
REMARK  233  A    between atoms: _587  and  _589
REMARK  234  A    between atoms: _589  and  _590
REMARK  235  A    between atoms: _589  and  _592
REMARK                            x       y       z     vdW  Elec       q    Type
REMARK                         _______ _______ _______ _____ _____    ______ ____
ROOT
ATOM      1  CA  GLY A   5      -8.133  -7.245  10.531  0.00  0.00    +0.176 C 
ENDROOT
BRANCH   1   3
ATOM      2  C   ALA A   4     -10.281  -6.428  11.340  0.00  0.00    +0.241 C 
ATOM      3  N   GLY A   5      -9.042  -6.844  11.586  0.00  0.00    -0.295 N 
ATOM      4  H   GLY A   5      -8.713  -6.883  12.572  0.00  0.00    +0.150 HD
ATOM      5  O   ALA A   4     -10.739  -6.293  10.205  0.00  0.00    -0.273 OA
BRANCH   2   6
ATOM      6  CA  ALA A   4     -11.129  -6.116  12.569  0.00  0.00    +0.149 C 
ATOM      7  CB  ALA A   4     -11.802  -7.384  13.077  0.00  0.00    +0.031 C 
BRANCH   6  10
ATOM      8  C   LEU A   3     -12.601  -4.314  13.266  0.00  0.00    +0.241 C 
ATOM      9  O   LEU A   3     -12.228  -4.403  14.437  0.00  0.00    -0.273 OA
ATOM     10  N   ALA A   4     -12.126  -5.089  12.297  0.00  0.00    -0.297 N 
ATOM     11  H   ALA A   4     -12.473  -4.960  11.325  0.00  0.00    +0.150 HD
BRANCH   8  12
ATOM     12  CA  LEU A   3     -13.648  -3.283  12.857  0.00  0.00    +0.149 C 
BRANCH  12  15
ATOM     13  C   LYS A   2     -12.612  -1.823  11.186  0.00  0.00    +0.241 C 
ATOM     14  O   LYS A   2     -11.905  -1.246  12.015  0.00  0.00    -0.273 OA
ATOM     15  N   LEU A   3     -13.437  -2.819  11.492  0.00  0.00    -0.297 N 
ATOM     16  H   LEU A   3     -13.955  -3.288  10.722  0.00  0.00    +0.150 HD
BRANCH  13  17
ATOM     17  CA  LYS A   2     -12.591  -1.421   9.716  0.00  0.00    +0.149 C 
BRANCH  17  19
ATOM     18  C   GLY A   1     -14.569  -0.048   9.404  0.00  0.00    +0.240 C 
ATOM     19  N   LYS A   2     -13.247  -0.133   9.523  0.00  0.00    -0.297 N 
ATOM     20  H   LYS A   2     -12.672   0.733   9.478  0.00  0.00    +0.150 HD
ATOM     21  O   GLY A   1     -15.309  -1.031   9.464  0.00  0.00    -0.274 OA
BRANCH  18  22
ATOM     22  CA  GLY A   1     -15.143   1.341   9.195  0.00  0.00    +0.169 C 
BRANCH  22  23
ATOM     23  N   GLY A   1     -16.385   1.329   8.442  0.00  0.00    -0.236 NA
ATOM     24  H   GLY A   1     -17.285   1.208   8.948  0.00  0.00    +0.142 HD
ENDBRANCH  22  23
ENDBRANCH  18  22
ENDBRANCH  17  19
BRANCH  17  25
ATOM     25  CB  LYS A   2     -11.154  -1.383   9.190  0.00  0.00    +0.029 C 
BRANCH  25  26
ATOM     26  CG  LYS A   2     -10.438  -2.724   9.260  0.00  0.00    +0.000 C 
BRANCH  26  27
ATOM     27  CD  LYS A   2      -9.232  -2.756   8.338  0.00  0.00    -0.024 C 
BRANCH  27  28
ATOM     28  CE  LYS A   2      -8.449  -4.049   8.491  0.00  0.00    -0.086 C 
BRANCH  28  29
ATOM     29  NZ  LYS A   2      -7.306  -4.121   7.540  0.00  0.00    +0.380 N 
ATOM     30  HZ1 LYS A   2      -6.660  -3.325   7.716  0.00  0.00    -0.089 HD
ATOM     31  HZ2 LYS A   2      -6.798  -5.018   7.677  0.00  0.00    -0.089 HD
ATOM     32  HZ3 LYS A   2      -7.664  -4.070   6.565  0.00  0.00    -0.089 HD
ENDBRANCH  28  29
ENDBRANCH  27  28
ENDBRANCH  26  27
ENDBRANCH  25  26
ENDBRANCH  17  25
ENDBRANCH  13  17
ENDBRANCH  12  15
BRANCH  12  33
ATOM     33  CB  LEU A   3     -15.056  -3.871  12.993  0.00  0.00    +0.029 C 
BRANCH  33  34
ATOM     34  CG  LEU A   3     -15.489  -4.484  14.326  0.00  0.00    +0.002 C 
ATOM     35  CD2 LEU A   3     -15.424  -3.459  15.449  0.00  0.00    +0.000 C 
ATOM     36  CD1 LEU A   3     -16.892  -5.053  14.200  0.00  0.00    +0.000 C 
ENDBRANCH  33  34
ENDBRANCH  12  33
ENDBRANCH   8  12
ENDBRANCH   6  10
ENDBRANCH   2   6
ENDBRANCH   1   3
BRANCH   1  37
ATOM     37  C   GLY A   5      -7.533  -8.603  10.842  0.00  0.00    +0.243 C 
ATOM     38  O   GLY A   5      -7.215  -8.904  11.984  0.00  0.00    -0.273 OA
ATOM     39  N   ILE A   6      -7.384  -9.433   9.817  0.00  0.00    -0.297 N 
ATOM     40  H   ILE A   6      -7.631  -9.103   8.862  0.00  0.00    +0.150 HD
BRANCH  39  41
ATOM     41  CA  ILE A   6      -6.884 -10.797   9.988  0.00  0.00    +0.149 C 
BRANCH  41  42
ATOM     42  C   ILE A   6      -5.609 -11.024   9.178  0.00  0.00    +0.241 C 
ATOM     43  N   LEU A   7      -4.652 -11.740   9.761  0.00  0.00    -0.297 N 
ATOM     44  H   LEU A   7      -4.799 -12.089  10.730  0.00  0.00    +0.150 HD
ATOM     45  O   ILE A   6      -5.503 -10.567   8.040  0.00  0.00    -0.273 OA
BRANCH  43  46
ATOM     46  CA  LEU A   7      -3.402 -12.049   9.077  0.00  0.00    +0.149 C 
BRANCH  46  47
ATOM     47  C   LEU A   7      -3.049 -13.528   9.208  0.00  0.00    +0.241 C 
ATOM     48  O   LEU A   7      -2.884 -14.040  10.315  0.00  0.00    -0.273 OA
ATOM     49  N   ALA A   8      -2.936 -14.207   8.071  0.00  0.00    -0.297 N 
ATOM     50  H   ALA A   8      -3.125 -13.721   7.171  0.00  0.00    +0.150 HD
BRANCH  49  51
ATOM     51  CA  ALA A   8      -2.555 -15.615   8.049  0.00  0.00    +0.149 C 
ATOM     52  CB  ALA A   8      -3.495 -16.409   7.158  0.00  0.00    +0.031 C 
BRANCH  51  53
ATOM     53  C   ALA A   8      -1.115 -15.767   7.574  0.00  0.00    +0.241 C 
ATOM     54  N   GLU A   9      -0.312 -16.499   8.339  0.00  0.00    -0.298 N 
ATOM     55  H   GLU A   9      -0.693 -16.949   9.196  0.00  0.00    +0.150 HD
ATOM     56  O   ALA A   8      -0.735 -15.225   6.536  0.00  0.00    -0.273 OA
BRANCH  54  57
ATOM     57  CA  GLU A   9       1.094 -16.682   7.998  0.00  0.00    +0.137 C 
BRANCH  57  58
ATOM     58  C   GLU A   9       1.497 -18.149   8.091  0.00  0.00    +0.227 C 
ATOM     59  O   GLU A   9       1.033 -18.878   8.968  0.00  0.00    -0.286 OA
ENDBRANCH  57  58
BRANCH  57  60
ATOM     60  CB  GLU A   9       1.980 -15.824   8.902  0.00  0.00    +0.039 C 
BRANCH  60  61
ATOM     61  CG  GLU A   9       1.765 -14.326   8.727  0.00  0.00    +0.116 C 
BRANCH  61  62
ATOM     62  CD  GLU A   9       2.745 -13.493   9.528  0.00  0.00    +0.365 C 
ATOM     63  OE2 GLU A   9       2.444 -13.175  10.698  0.00  0.00    -0.246 OA
ATOM     64  OE1 GLU A   9       3.817 -13.149   8.986  0.00  0.00    -0.246 OA
ENDBRANCH  61  62
ENDBRANCH  60  61
ENDBRANCH  57  60
ENDBRANCH  54  57
ENDBRANCH  51  53
ENDBRANCH  49  51
ENDBRANCH  46  47
BRANCH  46  65
ATOM     65  CB  LEU A   7      -2.260 -11.185   9.622  0.00  0.00    +0.029 C 
BRANCH  65  66
ATOM     66  CG  LEU A   7      -0.880 -11.389   8.988  0.00  0.00    +0.002 C 
ATOM     67  CD2 LEU A   7       0.185 -10.615   9.752  0.00  0.00    +0.000 C 
ATOM     68  CD1 LEU A   7      -0.889 -10.984   7.519  0.00  0.00    +0.000 C 
ENDBRANCH  65  66
ENDBRANCH  46  65
ENDBRANCH  43  46
ENDBRANCH  41  42
BRANCH  41  69
ATOM     69  CB  ILE A   6      -7.949 -11.851   9.574  0.00  0.00    +0.027 C 
ATOM     70  CG2 ILE A   6      -7.531 -13.242  10.035  0.00  0.00    +0.002 C 
BRANCH  69  71
ATOM     71  CG1 ILE A   6      -9.326 -11.477  10.142  0.00  0.00    +0.002 C 
ATOM     72  CD1 ILE A   6      -9.382 -11.370  11.644  0.00  0.00    +0.000 C 
ENDBRANCH  69  71
ENDBRANCH  41  69
ENDBRANCH  39  41
ENDBRANCH   1  37
TORSDOF 32
REMARK  Name = ../refined-set-2016/4xtz/4xtz_pocket.pdb
REMARK  235 active torsions:
REMARK  status: ('A' for Active; 'I' for Inactive)
REMARK    1  A    between atoms: _1  and  _3
REMARK    2  A    between atoms: _3  and  _4
REMARK    3  A    between atoms: _3  and  _6
REMARK    4  A    between atoms: _6  and  _7
REMARK    5  A    between atoms: _10  and  _12
REMARK    6  A    between atoms: _12  and  _13
REMARK    7  A    between atoms: _15  and  _17
REMARK    8  A    between atoms: _17  and  _18
REMARK    9  A    between atoms: _17  and  _20
REMARK   10  A    between atoms: _20  and  _21
REMARK   11  A    between atoms: _23  and  _25
REMARK   12  A    between atoms: _25  and  _26
REMARK   13  A    between atoms: _25  and  _28
REMARK   14  A    between atoms: _28  and  _29
REMARK   15  A    between atoms: _32  and  _34
REMARK   16  A    between atoms: _34  and  _35
REMARK   17  A    between atoms: _34  and  _37
REMARK   18  A    between atoms: _37  and  _38
REMARK   19  A    between atoms: _43  and  _45
REMARK   20  A    between atoms: _45  and  _46
REMARK   21  A    between atoms: _49  and  _51
REMARK   22  A    between atoms: _51  and  _52
REMARK   23  A    between atoms: _51  and  _54
REMARK   24  A    between atoms: _54  and  _55
REMARK   25  A    between atoms: _58  and  _60
REMARK   26  A    between atoms: _60  and  _61
REMARK   27  A    between atoms: _60  and  _63
REMARK   28  A    between atoms: _63  and  _64
REMARK   29  A    between atoms: _67  and  _69
REMARK   30  A    between atoms: _69  and  _70
REMARK   31  A    between atoms: _69  and  _72
REMARK   32  A    between atoms: _72  and  _73
REMARK   33  A    between atoms: _76  and  _78
REMARK   34  A    between atoms: _78  and  _79
REMARK   35  A    between atoms: _82  and  _84
REMARK   36  A    between atoms: _84  and  _85
REMARK   37  A    between atoms: _84  and  _87
REMARK   38  A    between atoms: _87  and  _88
REMARK   39  A    between atoms: _88  and  _89
REMARK   40  A    between atoms: _94  and  _96
REMARK   41  A    between atoms: _96  and  _97
REMARK   42  A    between atoms: _96  and  _99
REMARK   43  A    between atoms: _99  and  _100
REMARK   44  A    between atoms: _103  and  _105
REMARK   45  A    between atoms: _105  and  _106
REMARK   46  A    between atoms: _109  and  _111
REMARK   47  A    between atoms: _111  and  _112
REMARK   48  A    between atoms: _114  and  _116
REMARK   49  A    between atoms: _116  and  _117
REMARK   50  A    between atoms: _116  and  _119
REMARK   51  A    between atoms: _119  and  _120
REMARK   52  A    between atoms: _120  and  _121
REMARK   53  A    between atoms: _121  and  _122
REMARK   54  A    between atoms: _131  and  _133
REMARK   55  A    between atoms: _133  and  _134
REMARK   56  A    between atoms: _136  and  _138
REMARK   57  A    between atoms: _138  and  _139
REMARK   58  A    between atoms: _138  and  _141
REMARK   59  A    between atoms: _141  and  _142
REMARK   60  A    between atoms: _142  and  _143
REMARK   61  A    between atoms: _143  and  _144
REMARK   62  A    between atoms: _153  and  _155
REMARK   63  A    between atoms: _155  and  _156
REMARK   64  A    between atoms: _155  and  _158
REMARK   65  A    between atoms: _158  and  _159
REMARK   66  A    between atoms: _164  and  _166
REMARK   67  A    between atoms: _166  and  _167
REMARK   68  A    between atoms: _169  and  _171
REMARK   69  A    between atoms: _171  and  _172
REMARK   70  A    between atoms: _171  and  _174
REMARK   71  A    between atoms: _174  and  _175
REMARK   72  A    between atoms: _175  and  _176
REMARK   73  A    between atoms: _176  and  _177
REMARK   74  A    between atoms: _186  and  _188
REMARK   75  A    between atoms: _188  and  _189
REMARK   76  A    between atoms: _191  and  _193
REMARK   77  A    between atoms: _193  and  _194
REMARK   78  A    between atoms: _193  and  _196
REMARK   79  A    between atoms: _196  and  _197
REMARK   80  A    between atoms: _207  and  _209
REMARK   81  A    between atoms: _209  and  _210
REMARK   82  A    between atoms: _213  and  _215
REMARK   83  A    between atoms: _215  and  _216
REMARK   84  A    between atoms: _219  and  _221
REMARK   85  A    between atoms: _221  and  _222
REMARK   86  A    between atoms: _221  and  _224
REMARK   87  A    between atoms: _224  and  _225
REMARK   88  A    between atoms: _228  and  _230
REMARK   89  A    between atoms: _230  and  _231
REMARK   90  A    between atoms: _230  and  _233
REMARK   91  A    between atoms: _233  and  _234
REMARK   92  A    between atoms: _234  and  _235
REMARK   93  A    between atoms: _240  and  _242
REMARK   94  A    between atoms: _242  and  _243
REMARK   95  A    between atoms: _242  and  _245
REMARK   96  A    between atoms: _245  and  _246
REMARK   97  A    between atoms: _249  and  _251
REMARK   98  A    between atoms: _251  and  _252
REMARK   99  A    between atoms: _251  and  _254
REMARK  100  A    between atoms: _254  and  _255
REMARK  101  A    between atoms: _258  and  _260
REMARK  102  A    between atoms: _260  and  _261
REMARK  103  A    between atoms: _260  and  _263
REMARK  104  A    between atoms: _263  and  _264
REMARK  105  A    between atoms: _267  and  _269
REMARK  106  A    between atoms: _269  and  _270
REMARK  107  A    between atoms: _269  and  _272
REMARK  108  A    between atoms: _272  and  _273
REMARK  109  A    between atoms: _275  and  _277
REMARK  110  A    between atoms: _277  and  _278
REMARK  111  A    between atoms: _277  and  _280
REMARK  112  A    between atoms: _283  and  _285
REMARK  113  A    between atoms: _285  and  _286
REMARK  114  A    between atoms: _285  and  _288
REMARK  115  A    between atoms: _288  and  _289
REMARK  116  A    between atoms: _289  and  _290
REMARK  117  A    between atoms: _290  and  _291
REMARK  118  A    between atoms: _291  and  _292
REMARK  119  A    between atoms: _296  and  _298
REMARK  120  A    between atoms: _298  and  _299
REMARK  121  A    between atoms: _298  and  _301
REMARK  122  A    between atoms: _301  and  _302
REMARK  123  A    between atoms: _313  and  _314
REMARK  124  A    between atoms: _319  and  _321
REMARK  125  A    between atoms: _321  and  _322
REMARK  126  A    between atoms: _321  and  _324
REMARK  127  A    between atoms: _324  and  _325
REMARK  128  A    between atoms: _330  and  _332
REMARK  129  A    between atoms: _332  and  _333
REMARK  130  A    between atoms: _332  and  _335
REMARK  131  A    between atoms: _335  and  _336
REMARK  132  A    between atoms: _339  and  _341
REMARK  133  A    between atoms: _341  and  _342
REMARK  134  A    between atoms: _341  and  _344
REMARK  135  A    between atoms: _347  and  _349
REMARK  136  A    between atoms: _349  and  _350
REMARK  137  A    between atoms: _352  and  _354
REMARK  138  A    between atoms: _354  and  _355
REMARK  139  A    between atoms: _354  and  _357
REMARK  140  A    between atoms: _357  and  _358
REMARK  141  A    between atoms: _358  and  _359
REMARK  142  A    between atoms: _359  and  _360
REMARK  143  A    between atoms: _360  and  _361
REMARK  144  A    between atoms: _365  and  _367
REMARK  145  A    between atoms: _367  and  _368
REMARK  146  A    between atoms: _367  and  _370
REMARK  147  A    between atoms: _370  and  _371
REMARK  148  A    between atoms: _374  and  _376
REMARK  149  A    between atoms: _376  and  _377
REMARK  150  A    between atoms: _380  and  _382
REMARK  151  A    between atoms: _382  and  _383
REMARK  152  A    between atoms: _385  and  _387
REMARK  153  A    between atoms: _387  and  _388
REMARK  154  A    between atoms: _387  and  _390
REMARK  155  A    between atoms: _390  and  _391
REMARK  156  A    between atoms: _394  and  _396
REMARK  157  A    between atoms: _396  and  _397
REMARK  158  A    between atoms: _396  and  _399
REMARK  159  A    between atoms: _399  and  _400
REMARK  160  A    between atoms: _403  and  _405
REMARK  161  A    between atoms: _405  and  _406
REMARK  162  A    between atoms: _409  and  _411
REMARK  163  A    between atoms: _411  and  _412
REMARK  164  A    between atoms: _411  and  _414
REMARK  165  A    between atoms: _414  and  _415
REMARK  166  A    between atoms: _415  and  _416
REMARK  167  A    between atoms: _419  and  _421
REMARK  168  A    between atoms: _421  and  _422
REMARK  169  A    between atoms: _421  and  _424
REMARK  170  A    between atoms: _427  and  _429
REMARK  171  A    between atoms: _429  and  _430
REMARK  172  A    between atoms: _429  and  _432
REMARK  173  A    between atoms: _432  and  _433
REMARK  174  A    between atoms: _436  and  _438
REMARK  175  A    between atoms: _438  and  _439
REMARK  176  A    between atoms: _441  and  _443
REMARK  177  A    between atoms: _443  and  _444
REMARK  178  A    between atoms: _443  and  _446
REMARK  179  A    between atoms: _449  and  _451
REMARK  180  A    between atoms: _451  and  _452
REMARK  181  A    between atoms: _454  and  _456
REMARK  182  A    between atoms: _456  and  _457
REMARK  183  A    between atoms: _456  and  _459
REMARK  184  A    between atoms: _459  and  _460
REMARK  185  A    between atoms: _463  and  _465
REMARK  186  A    between atoms: _465  and  _466
REMARK  187  A    between atoms: _465  and  _468
REMARK  188  A    between atoms: _468  and  _469
REMARK  189  A    between atoms: _474  and  _476
REMARK  190  A    between atoms: _476  and  _477
REMARK  191  A    between atoms: _476  and  _479
REMARK  192  A    between atoms: _482  and  _484
REMARK  193  A    between atoms: _484  and  _485
REMARK  194  A    between atoms: _484  and  _487
REMARK  195  A    between atoms: _487  and  _488
REMARK  196  A    between atoms: _488  and  _489
REMARK  197  A    between atoms: _494  and  _496
REMARK  198  A    between atoms: _496  and  _497
REMARK  199  A    between atoms: _501  and  _502
REMARK  200  A    between atoms: _507  and  _509
REMARK  201  A    between atoms: _509  and  _510
REMARK  202  A    between atoms: _509  and  _512
REMARK  203  A    between atoms: _512  and  _513
REMARK  204  A    between atoms: _513  and  _514
REMARK  205  A    between atoms: _517  and  _519
REMARK  206  A    between atoms: _519  and  _520
REMARK  207  A    between atoms: _519  and  _522
REMARK  208  A    between atoms: _525  and  _527
REMARK  209  A    between atoms: _527  and  _528
REMARK  210  A    between atoms: _527  and  _530
REMARK  211  A    between atoms: _530  and  _531
REMARK  212  A    between atoms: _535  and  _536
REMARK  213  A    between atoms: _541  and  _543
REMARK  214  A    between atoms: _543  and  _544
REMARK  215  A    between atoms: _543  and  _546
REMARK  216  A    between atoms: _546  and  _547
REMARK  217  A    between atoms: _550  and  _552
REMARK  218  A    between atoms: _552  and  _553
REMARK  219  A    between atoms: _556  and  _558
REMARK  220  A    between atoms: _558  and  _559
REMARK  221  A    between atoms: _558  and  _561
REMARK  222  A    between atoms: _561  and  _562
REMARK  223  A    between atoms: _565  and  _567
REMARK  224  A    between atoms: _567  and  _568
REMARK  225  A    between atoms: _567  and  _570
REMARK  226  A    between atoms: _570  and  _571
REMARK  227  A    between atoms: _573  and  _575
REMARK  228  A    between atoms: _575  and  _576
REMARK  229  A    between atoms: _578  and  _580
REMARK  230  A    between atoms: _580  and  _581
REMARK  231  A    between atoms: _580  and  _583
REMARK  232  A    between atoms: _583  and  _584
REMARK  233  A    between atoms: _587  and  _589
REMARK  234  A    between atoms: _589  and  _590
REMARK  235  A    between atoms: _589  and  _592
REMARK                            x       y       z     vdW  Elec       q    Type
REMARK                         _______ _______ _______ _____ _____    ______ ____
ROOT
ATOM      1  C   VAL A   4      -6.733 -10.248  15.578  0.00  0.00    +0.241 C 
ATOM      2  O   VAL A   4      -6.306 -10.333  16.731  0.00  0.00    -0.273 OA
ATOM      3  N   GLY A   5      -7.012  -9.091  14.989  0.00  0.00    -0.295 N 
ATOM      4  H   GLY A   5      -7.234  -9.083  13.973  0.00  0.00    +0.150 HD
ENDROOT
BRANCH   3   5
ATOM      5  CA  GLY A   5      -7.017  -7.839  15.720  0.00  0.00    +0.176 C 
BRANCH   5   6
ATOM      6  C   GLY A   5      -8.408  -7.243  15.650  0.00  0.00    +0.243 C 
ATOM      7  N   LEU A   6      -9.127  -7.277  16.767  0.00  0.00    -0.297 N 
ATOM      8  H   LEU A   6      -8.691  -7.641  17.638  0.00  0.00    +0.150 HD
ATOM      9  O   GLY A   5      -8.830  -6.771  14.598  0.00  0.00    -0.273 OA
BRANCH   7  10
ATOM     10  CA  LEU A   6     -10.512  -6.817  16.804  0.00  0.00    +0.149 C 
BRANCH  10  11
ATOM     11  C   LEU A   6     -10.663  -5.596  17.703  0.00  0.00    +0.241 C 
ATOM     12  O   LEU A   6     -10.381  -5.664  18.897  0.00  0.00    -0.273 OA
ATOM     13  N   ASN A   7     -11.108  -4.481  17.128  0.00  0.00    -0.297 N 
ATOM     14  H   ASN A   7     -11.340  -4.488  16.114  0.00  0.00    +0.150 HD
BRANCH  13  15
ATOM     15  CA  ASN A   7     -11.277  -3.248  17.891  0.00  0.00    +0.158 C 
BRANCH  15  16
ATOM     16  C   ASN A   7     -12.519  -3.288  18.769  0.00  0.00    +0.241 C 
ATOM     17  N   VAL A   8     -12.313  -3.342  20.079  0.00  0.00    -0.298 N 
ATOM     18  H   VAL A   8     -11.339  -3.331  20.443  0.00  0.00    +0.150 HD
ATOM     19  O   ASN A   7     -13.643  -3.259  18.271  0.00  0.00    -0.273 OA
BRANCH  17  20
ATOM     20  CA  VAL A   8     -13.424  -3.417  21.017  0.00  0.00    +0.137 C 
BRANCH  20  21
ATOM     21  CB  VAL A   8     -13.098  -4.361  22.191  0.00  0.00    +0.026 C 
ATOM     22  CG2 VAL A   8     -14.257  -4.419  23.164  0.00  0.00    +0.002 C 
ATOM     23  CG1 VAL A   8     -12.769  -5.755  21.668  0.00  0.00    +0.002 C 
ENDBRANCH  20  21
BRANCH  20  24
ATOM     24  C   VAL A   8     -13.778  -2.025  21.540  0.00  0.00    +0.227 C 
ATOM     25  O   VAL A   8     -14.914  -1.572  21.402  0.00  0.00    -0.286 OA
ENDBRANCH  20  24
ENDBRANCH  17  20
ENDBRANCH  15  16
BRANCH  15  26
ATOM     26  CB  ASN A   7     -11.352  -2.036  16.958  0.00  0.00    +0.114 C 
BRANCH  26  27
ATOM     27  CG  ASN A   7     -10.115  -1.879  16.095  0.00  0.00    +0.222 C 
ATOM     28  ND2 ASN A   7      -8.946  -1.890  16.725  0.00  0.00    -0.329 N 
ATOM     29 HD21 ASN A   7      -8.913  -2.006  17.758  0.00  0.00    +0.145 HD
ATOM     30 HD22 ASN A   7      -8.063  -1.783  16.185  0.00  0.00    +0.145 HD
ATOM     31  OD1 ASN A   7     -10.210  -1.745  14.875  0.00  0.00    -0.275 OA
ENDBRANCH  26  27
ENDBRANCH  15  26
ENDBRANCH  13  15
ENDBRANCH  10  11
BRANCH  10  32
ATOM     32  CB  LEU A   6     -11.430  -7.944  17.284  0.00  0.00    +0.029 C 
BRANCH  32  33
ATOM     33  CG  LEU A   6     -12.862  -7.576  17.682  0.00  0.00    +0.002 C 
ATOM     34  CD2 LEU A   6     -13.557  -8.770  18.329  0.00  0.00    +0.000 C 
ATOM     35  CD1 LEU A   6     -13.653  -7.071  16.486  0.00  0.00    +0.000 C 
ENDBRANCH  32  33
ENDBRANCH  10  32
ENDBRANCH   7  10
ENDBRANCH   5   6
ENDBRANCH   3   5
BRANCH   1  36
ATOM     36  CA  VAL A   4      -6.961 -11.498  14.739  0.00  0.00    +0.149 C 
BRANCH  36  38
ATOM     37  C   GLY A   3      -5.192 -12.717  13.594  0.00  0.00    +0.243 C 
ATOM     38  N   VAL A   4      -5.778 -12.348  14.728  0.00  0.00    -0.297 N 
ATOM     39  H   VAL A   4      -5.381 -12.675  15.632  0.00  0.00    +0.150 HD
ATOM     40  O   GLY A   3      -5.607 -12.384  12.484  0.00  0.00    -0.273 OA
BRANCH  37  41
ATOM     41  CA  GLY A   3      -3.964 -13.589  13.730  0.00  0.00    +0.176 C 
BRANCH  41  44
ATOM     42  C   LEU A   2      -4.072 -15.951  13.204  0.00  0.00    +0.241 C 
ATOM     43  O   LEU A   2      -4.182 -16.257  14.387  0.00  0.00    -0.273 OA
ATOM     44  N   GLY A   3      -3.962 -14.694  12.790  0.00  0.00    -0.295 N 
ATOM     45  H   GLY A   3      -3.873 -14.498  11.773  0.00  0.00    +0.150 HD
BRANCH  42  46
ATOM     46  CA  LEU A   2      -4.071 -17.027  12.134  0.00  0.00    +0.149 C 
BRANCH  46  48
ATOM     47  C   VAL A   1      -1.820 -17.918  11.791  0.00  0.00    +0.238 C 
ATOM     48  N   LEU A   2      -3.006 -17.994  12.387  0.00  0.00    -0.297 N 
ATOM     49  H   LEU A   2      -3.182 -18.770  13.057  0.00  0.00    +0.150 HD
ATOM     50  O   VAL A   1      -1.539 -17.058  10.955  0.00  0.00    -0.274 OA
BRANCH  47  51
ATOM     51  CA  VAL A   1      -0.800 -18.982  12.181  0.00  0.00    +0.145 C 
BRANCH  51  52
ATOM     52  CB  VAL A   1       0.439 -18.308  12.800  0.00  0.00    +0.025 C 
ATOM     53  CG2 VAL A   1       0.020 -17.328  13.888  0.00  0.00    +0.002 C 
ATOM     54  CG1 VAL A   1       1.393 -19.355  13.357  0.00  0.00    +0.002 C 
ENDBRANCH  51  52
BRANCH  51  55
ATOM     55  N   VAL A   1      -0.459 -19.789  11.018  0.00  0.00    -0.238 NA
ATOM     56  H   VAL A   1       0.208 -19.415  10.313  0.00  0.00    +0.142 HD
ENDBRANCH  51  55
ENDBRANCH  47  51
ENDBRANCH  46  48
BRANCH  46  57
ATOM     57  CB  LEU A   2      -5.440 -17.712  12.103  0.00  0.00    +0.029 C 
BRANCH  57  58
ATOM     58  CG  LEU A   2      -5.831 -18.605  10.928  0.00  0.00    +0.002 C 
ATOM     59  CD2 LEU A   2      -7.173 -19.263  11.212  0.00  0.00    +0.000 C 
ATOM     60  CD1 LEU A   2      -5.889 -17.801   9.640  0.00  0.00    +0.000 C 
ENDBRANCH  57  58
ENDBRANCH  46  57
ENDBRANCH  42  46
ENDBRANCH  41  44
ENDBRANCH  37  41
ENDBRANCH  36  38
BRANCH  36  61
ATOM     61  CB  VAL A   4      -8.195 -12.241  15.296  0.00  0.00    +0.027 C 
ATOM     62  CG2 VAL A   4      -9.387 -11.296  15.394  0.00  0.00    +0.002 C 
ATOM     63  CG1 VAL A   4      -8.525 -13.455  14.439  0.00  0.00    +0.002 C 
ENDBRANCH  36  61
ENDBRANCH   1  36
TORSDOF 25
REMARK  Name = ../refined-set-2016/4xtz/4xtz_pocket.pdb
REMARK  235 active torsions:
REMARK  status: ('A' for Active; 'I' for Inactive)
REMARK    1  A    between atoms: _1  and  _3
REMARK    2  A    between atoms: _3  and  _4
REMARK    3  A    between atoms: _3  and  _6
REMARK    4  A    between atoms: _6  and  _7
REMARK    5  A    between atoms: _10  and  _12
REMARK    6  A    between atoms: _12  and  _13
REMARK    7  A    between atoms: _15  and  _17
REMARK    8  A    between atoms: _17  and  _18
REMARK    9  A    between atoms: _17  and  _20
REMARK   10  A    between atoms: _20  and  _21
REMARK   11  A    between atoms: _23  and  _25
REMARK   12  A    between atoms: _25  and  _26
REMARK   13  A    between atoms: _25  and  _28
REMARK   14  A    between atoms: _28  and  _29
REMARK   15  A    between atoms: _32  and  _34
REMARK   16  A    between atoms: _34  and  _35
REMARK   17  A    between atoms: _34  and  _37
REMARK   18  A    between atoms: _37  and  _38
REMARK   19  A    between atoms: _43  and  _45
REMARK   20  A    between atoms: _45  and  _46
REMARK   21  A    between atoms: _49  and  _51
REMARK   22  A    between atoms: _51  and  _52
REMARK   23  A    between atoms: _51  and  _54
REMARK   24  A    between atoms: _54  and  _55
REMARK   25  A    between atoms: _58  and  _60
REMARK   26  A    between atoms: _60  and  _61
REMARK   27  A    between atoms: _60  and  _63
REMARK   28  A    between atoms: _63  and  _64
REMARK   29  A    between atoms: _67  and  _69
REMARK   30  A    between atoms: _69  and  _70
REMARK   31  A    between atoms: _69  and  _72
REMARK   32  A    between atoms: _72  and  _73
REMARK   33  A    between atoms: _76  and  _78
REMARK   34  A    between atoms: _78  and  _79
REMARK   35  A    between atoms: _82  and  _84
REMARK   36  A    between atoms: _84  and  _85
REMARK   37  A    between atoms: _84  and  _87
REMARK   38  A    between atoms: _87  and  _88
REMARK   39  A    between atoms: _88  and  _89
REMARK   40  A    between atoms: _94  and  _96
REMARK   41  A    between atoms: _96  and  _97
REMARK   42  A    between atoms: _96  and  _99
REMARK   43  A    between atoms: _99  and  _100
REMARK   44  A    between atoms: _103  and  _105
REMARK   45  A    between atoms: _105  and  _106
REMARK   46  A    between atoms: _109  and  _111
REMARK   47  A    between atoms: _111  and  _112
REMARK   48  A    between atoms: _114  and  _116
REMARK   49  A    between atoms: _116  and  _117
REMARK   50  A    between atoms: _116  and  _119
REMARK   51  A    between atoms: _119  and  _120
REMARK   52  A    between atoms: _120  and  _121
REMARK   53  A    between atoms: _121  and  _122
REMARK   54  A    between atoms: _131  and  _133
REMARK   55  A    between atoms: _133  and  _134
REMARK   56  A    between atoms: _136  and  _138
REMARK   57  A    between atoms: _138  and  _139
REMARK   58  A    between atoms: _138  and  _141
REMARK   59  A    between atoms: _141  and  _142
REMARK   60  A    between atoms: _142  and  _143
REMARK   61  A    between atoms: _143  and  _144
REMARK   62  A    between atoms: _153  and  _155
REMARK   63  A    between atoms: _155  and  _156
REMARK   64  A    between atoms: _155  and  _158
REMARK   65  A    between atoms: _158  and  _159
REMARK   66  A    between atoms: _164  and  _166
REMARK   67  A    between atoms: _166  and  _167
REMARK   68  A    between atoms: _169  and  _171
REMARK   69  A    between atoms: _171  and  _172
REMARK   70  A    between atoms: _171  and  _174
REMARK   71  A    between atoms: _174  and  _175
REMARK   72  A    between atoms: _175  and  _176
REMARK   73  A    between atoms: _176  and  _177
REMARK   74  A    between atoms: _186  and  _188
REMARK   75  A    between atoms: _188  and  _189
REMARK   76  A    between atoms: _191  and  _193
REMARK   77  A    between atoms: _193  and  _194
REMARK   78  A    between atoms: _193  and  _196
REMARK   79  A    between atoms: _196  and  _197
REMARK   80  A    between atoms: _207  and  _209
REMARK   81  A    between atoms: _209  and  _210
REMARK   82  A    between atoms: _213  and  _215
REMARK   83  A    between atoms: _215  and  _216
REMARK   84  A    between atoms: _219  and  _221
REMARK   85  A    between atoms: _221  and  _222
REMARK   86  A    between atoms: _221  and  _224
REMARK   87  A    between atoms: _224  and  _225
REMARK   88  A    between atoms: _228  and  _230
REMARK   89  A    between atoms: _230  and  _231
REMARK   90  A    between atoms: _230  and  _233
REMARK   91  A    between atoms: _233  and  _234
REMARK   92  A    between atoms: _234  and  _235
REMARK   93  A    between atoms: _240  and  _242
REMARK   94  A    between atoms: _242  and  _243
REMARK   95  A    between atoms: _242  and  _245
REMARK   96  A    between atoms: _245  and  _246
REMARK   97  A    between atoms: _249  and  _251
REMARK   98  A    between atoms: _251  and  _252
REMARK   99  A    between atoms: _251  and  _254
REMARK  100  A    between atoms: _254  and  _255
REMARK  101  A    between atoms: _258  and  _260
REMARK  102  A    between atoms: _260  and  _261
REMARK  103  A    between atoms: _260  and  _263
REMARK  104  A    between atoms: _263  and  _264
REMARK  105  A    between atoms: _267  and  _269
REMARK  106  A    between atoms: _269  and  _270
REMARK  107  A    between atoms: _269  and  _272
REMARK  108  A    between atoms: _272  and  _273
REMARK  109  A    between atoms: _275  and  _277
REMARK  110  A    between atoms: _277  and  _278
REMARK  111  A    between atoms: _277  and  _280
REMARK  112  A    between atoms: _283  and  _285
REMARK  113  A    between atoms: _285  and  _286
REMARK  114  A    between atoms: _285  and  _288
REMARK  115  A    between atoms: _288  and  _289
REMARK  116  A    between atoms: _289  and  _290
REMARK  117  A    between atoms: _290  and  _291
REMARK  118  A    between atoms: _291  and  _292
REMARK  119  A    between atoms: _296  and  _298
REMARK  120  A    between atoms: _298  and  _299
REMARK  121  A    between atoms: _298  and  _301
REMARK  122  A    between atoms: _301  and  _302
REMARK  123  A    between atoms: _313  and  _314
REMARK  124  A    between atoms: _319  and  _321
REMARK  125  A    between atoms: _321  and  _322
REMARK  126  A    between atoms: _321  and  _324
REMARK  127  A    between atoms: _324  and  _325
REMARK  128  A    between atoms: _330  and  _332
REMARK  129  A    between atoms: _332  and  _333
REMARK  130  A    between atoms: _332  and  _335
REMARK  131  A    between atoms: _335  and  _336
REMARK  132  A    between atoms: _339  and  _341
REMARK  133  A    between atoms: _341  and  _342
REMARK  134  A    between atoms: _341  and  _344
REMARK  135  A    between atoms: _347  and  _349
REMARK  136  A    between atoms: _349  and  _350
REMARK  137  A    between atoms: _352  and  _354
REMARK  138  A    between atoms: _354  and  _355
REMARK  139  A    between atoms: _354  and  _357
REMARK  140  A    between atoms: _357  and  _358
REMARK  141  A    between atoms: _358  and  _359
REMARK  142  A    between atoms: _359  and  _360
REMARK  143  A    between atoms: _360  and  _361
REMARK  144  A    between atoms: _365  and  _367
REMARK  145  A    between atoms: _367  and  _368
REMARK  146  A    between atoms: _367  and  _370
REMARK  147  A    between atoms: _370  and  _371
REMARK  148  A    between atoms: _374  and  _376
REMARK  149  A    between atoms: _376  and  _377
REMARK  150  A    between atoms: _380  and  _382
REMARK  151  A    between atoms: _382  and  _383
REMARK  152  A    between atoms: _385  and  _387
REMARK  153  A    between atoms: _387  and  _388
REMARK  154  A    between atoms: _387  and  _390
REMARK  155  A    between atoms: _390  and  _391
REMARK  156  A    between atoms: _394  and  _396
REMARK  157  A    between atoms: _396  and  _397
REMARK  158  A    between atoms: _396  and  _399
REMARK  159  A    between atoms: _399  and  _400
REMARK  160  A    between atoms: _403  and  _405
REMARK  161  A    between atoms: _405  and  _406
REMARK  162  A    between atoms: _409  and  _411
REMARK  163  A    between atoms: _411  and  _412
REMARK  164  A    between atoms: _411  and  _414
REMARK  165  A    between atoms: _414  and  _415
REMARK  166  A    between atoms: _415  and  _416
REMARK  167  A    between atoms: _419  and  _421
REMARK  168  A    between atoms: _421  and  _422
REMARK  169  A    between atoms: _421  and  _424
REMARK  170  A    between atoms: _427  and  _429
REMARK  171  A    between atoms: _429  and  _430
REMARK  172  A    between atoms: _429  and  _432
REMARK  173  A    between atoms: _432  and  _433
REMARK  174  A    between atoms: _436  and  _438
REMARK  175  A    between atoms: _438  and  _439
REMARK  176  A    between atoms: _441  and  _443
REMARK  177  A    between atoms: _443  and  _444
REMARK  178  A    between atoms: _443  and  _446
REMARK  179  A    between atoms: _449  and  _451
REMARK  180  A    between atoms: _451  and  _452
REMARK  181  A    between atoms: _454  and  _456
REMARK  182  A    between atoms: _456  and  _457
REMARK  183  A    between atoms: _456  and  _459
REMARK  184  A    between atoms: _459  and  _460
REMARK  185  A    between atoms: _463  and  _465
REMARK  186  A    between atoms: _465  and  _466
REMARK  187  A    between atoms: _465  and  _468
REMARK  188  A    between atoms: _468  and  _469
REMARK  189  A    between atoms: _474  and  _476
REMARK  190  A    between atoms: _476  and  _477
REMARK  191  A    between atoms: _476  and  _479
REMARK  192  A    between atoms: _482  and  _484
REMARK  193  A    between atoms: _484  and  _485
REMARK  194  A    between atoms: _484  and  _487
REMARK  195  A    between atoms: _487  and  _488
REMARK  196  A    between atoms: _488  and  _489
REMARK  197  A    between atoms: _494  and  _496
REMARK  198  A    between atoms: _496  and  _497
REMARK  199  A    between atoms: _501  and  _502
REMARK  200  A    between atoms: _507  and  _509
REMARK  201  A    between atoms: _509  and  _510
REMARK  202  A    between atoms: _509  and  _512
REMARK  203  A    between atoms: _512  and  _513
REMARK  204  A    between atoms: _513  and  _514
REMARK  205  A    between atoms: _517  and  _519
REMARK  206  A    between atoms: _519  and  _520
REMARK  207  A    between atoms: _519  and  _522
REMARK  208  A    between atoms: _525  and  _527
REMARK  209  A    between atoms: _527  and  _528
REMARK  210  A    between atoms: _527  and  _530
REMARK  211  A    between atoms: _530  and  _531
REMARK  212  A    between atoms: _535  and  _536
REMARK  213  A    between atoms: _541  and  _543
REMARK  214  A    between atoms: _543  and  _544
REMARK  215  A    between atoms: _543  and  _546
REMARK  216  A    between atoms: _546  and  _547
REMARK  217  A    between atoms: _550  and  _552
REMARK  218  A    between atoms: _552  and  _553
REMARK  219  A    between atoms: _556  and  _558
REMARK  220  A    between atoms: _558  and  _559
REMARK  221  A    between atoms: _558  and  _561
REMARK  222  A    between atoms: _561  and  _562
REMARK  223  A    between atoms: _565  and  _567
REMARK  224  A    between atoms: _567  and  _568
REMARK  225  A    between atoms: _567  and  _570
REMARK  226  A    between atoms: _570  and  _571
REMARK  227  A    between atoms: _573  and  _575
REMARK  228  A    between atoms: _575  and  _576
REMARK  229  A    between atoms: _578  and  _580
REMARK  230  A    between atoms: _580  and  _581
REMARK  231  A    between atoms: _580  and  _583
REMARK  232  A    between atoms: _583  and  _584
REMARK  233  A    between atoms: _587  and  _589
REMARK  234  A    between atoms: _589  and  _590
REMARK  235  A    between atoms: _589  and  _592
REMARK                            x       y       z     vdW  Elec       q    Type
REMARK                         _______ _______ _______ _____ _____    ______ ____
ROOT
ATOM      1  C   GLN A   1     -10.643   2.360  19.599  0.00  0.00    +0.238 C 
ATOM      2  N   ALA A   2     -10.171   3.551  19.952  0.00  0.00    -0.297 N 
ATOM      3  H   ALA A   2      -9.501   3.619  20.745  0.00  0.00    +0.150 HD
ATOM      4  O   GLN A   1     -11.471   2.210  18.703  0.00  0.00    -0.274 OA
ENDROOT
BRANCH   2   5
ATOM      5  CA  ALA A   2     -10.573   4.765  19.250  0.00  0.00    +0.149 C 
ATOM      6  CB  ALA A   2     -10.315   5.992  20.113  0.00  0.00    +0.031 C 
BRANCH   5   7
ATOM      7  C   ALA A   2      -9.837   4.884  17.919  0.00  0.00    +0.244 C 
ATOM      8  O   ALA A   2      -8.633   4.637  17.852  0.00  0.00    -0.273 OA
ATOM      9  N   PRO A   3     -10.563   5.258  16.853  0.00  0.00    -0.273 N 
ATOM     10  CD  PRO A   3     -12.021   5.472  16.845  0.00  0.00    +0.094 C 
ATOM     11  CG  PRO A   3     -12.359   5.453  15.382  0.00  0.00    +0.024 C 
ATOM     12  CB  PRO A   3     -11.146   5.975  14.693  0.00  0.00    +0.030 C 
ATOM     13  CA  PRO A   3      -9.977   5.433  15.519  0.00  0.00    +0.140 C 
BRANCH  13  14
ATOM     14  C   PRO A   3      -8.811   6.419  15.527  0.00  0.00    +0.227 C 
ATOM     15  O   PRO A   3      -7.839   6.230  14.793  0.00  0.00    -0.286 OA
ENDBRANCH  13  14
ENDBRANCH   5   7
ENDBRANCH   2   5
BRANCH   1  16
ATOM     16  CA  GLN A   1     -10.108   1.157  20.371  0.00  0.00    +0.145 C 
BRANCH  16  17
ATOM     17  N   GLN A   1     -11.182   0.414  21.018  0.00  0.00    -0.238 NA
ATOM     18  H   GLN A   1     -11.358  -0.569  20.728  0.00  0.00    +0.142 HD
ENDBRANCH  16  17
BRANCH  16  19
ATOM     19  CB  GLN A   1      -9.326   0.238  19.429  0.00  0.00    +0.036 C 
BRANCH  19  20
ATOM     20  CG  GLN A   1      -8.041   0.842  18.889  0.00  0.00    +0.087 C 
BRANCH  20  21
ATOM     21  CD  GLN A   1      -6.899   0.745  19.878  0.00  0.00    +0.219 C 
ATOM     22  NE2 GLN A   1      -6.688   1.807  20.648  0.00  0.00    -0.329 N 
ATOM     23 HE21 GLN A   1      -5.920   1.797  21.349  0.00  0.00    +0.145 HD
ATOM     24 HE22 GLN A   1      -7.291   2.649  20.550  0.00  0.00    +0.145 HD
ATOM     25  OE1 GLN A   1      -6.215  -0.276  19.954  0.00  0.00    -0.275 OA
ENDBRANCH  20  21
ENDBRANCH  19  20
ENDBRANCH  16  19
ENDBRANCH   1  16
TORSDOF 8
REMARK  Name = ../refined-set-2016/4xtz/4xtz_pocket.pdb
REMARK  235 active torsions:
REMARK  status: ('A' for Active; 'I' for Inactive)
REMARK    1  A    between atoms: _1  and  _3
REMARK    2  A    between atoms: _3  and  _4
REMARK    3  A    between atoms: _3  and  _6
REMARK    4  A    between atoms: _6  and  _7
REMARK    5  A    between atoms: _10  and  _12
REMARK    6  A    between atoms: _12  and  _13
REMARK    7  A    between atoms: _15  and  _17
REMARK    8  A    between atoms: _17  and  _18
REMARK    9  A    between atoms: _17  and  _20
REMARK   10  A    between atoms: _20  and  _21
REMARK   11  A    between atoms: _23  and  _25
REMARK   12  A    between atoms: _25  and  _26
REMARK   13  A    between atoms: _25  and  _28
REMARK   14  A    between atoms: _28  and  _29
REMARK   15  A    between atoms: _32  and  _34
REMARK   16  A    between atoms: _34  and  _35
REMARK   17  A    between atoms: _34  and  _37
REMARK   18  A    between atoms: _37  and  _38
REMARK   19  A    between atoms: _43  and  _45
REMARK   20  A    between atoms: _45  and  _46
REMARK   21  A    between atoms: _49  and  _51
REMARK   22  A    between atoms: _51  and  _52
REMARK   23  A    between atoms: _51  and  _54
REMARK   24  A    between atoms: _54  and  _55
REMARK   25  A    between atoms: _58  and  _60
REMARK   26  A    between atoms: _60  and  _61
REMARK   27  A    between atoms: _60  and  _63
REMARK   28  A    between atoms: _63  and  _64
REMARK   29  A    between atoms: _67  and  _69
REMARK   30  A    between atoms: _69  and  _70
REMARK   31  A    between atoms: _69  and  _72
REMARK   32  A    between atoms: _72  and  _73
REMARK   33  A    between atoms: _76  and  _78
REMARK   34  A    between atoms: _78  and  _79
REMARK   35  A    between atoms: _82  and  _84
REMARK   36  A    between atoms: _84  and  _85
REMARK   37  A    between atoms: _84  and  _87
REMARK   38  A    between atoms: _87  and  _88
REMARK   39  A    between atoms: _88  and  _89
REMARK   40  A    between atoms: _94  and  _96
REMARK   41  A    between atoms: _96  and  _97
REMARK   42  A    between atoms: _96  and  _99
REMARK   43  A    between atoms: _99  and  _100
REMARK   44  A    between atoms: _103  and  _105
REMARK   45  A    between atoms: _105  and  _106
REMARK   46  A    between atoms: _109  and  _111
REMARK   47  A    between atoms: _111  and  _112
REMARK   48  A    between atoms: _114  and  _116
REMARK   49  A    between atoms: _116  and  _117
REMARK   50  A    between atoms: _116  and  _119
REMARK   51  A    between atoms: _119  and  _120
REMARK   52  A    between atoms: _120  and  _121
REMARK   53  A    between atoms: _121  and  _122
REMARK   54  A    between atoms: _131  and  _133
REMARK   55  A    between atoms: _133  and  _134
REMARK   56  A    between atoms: _136  and  _138
REMARK   57  A    between atoms: _138  and  _139
REMARK   58  A    between atoms: _138  and  _141
REMARK   59  A    between atoms: _141  and  _142
REMARK   60  A    between atoms: _142  and  _143
REMARK   61  A    between atoms: _143  and  _144
REMARK   62  A    between atoms: _153  and  _155
REMARK   63  A    between atoms: _155  and  _156
REMARK   64  A    between atoms: _155  and  _158
REMARK   65  A    between atoms: _158  and  _159
REMARK   66  A    between atoms: _164  and  _166
REMARK   67  A    between atoms: _166  and  _167
REMARK   68  A    between atoms: _169  and  _171
REMARK   69  A    between atoms: _171  and  _172
REMARK   70  A    between atoms: _171  and  _174
REMARK   71  A    between atoms: _174  and  _175
REMARK   72  A    between atoms: _175  and  _176
REMARK   73  A    between atoms: _176  and  _177
REMARK   74  A    between atoms: _186  and  _188
REMARK   75  A    between atoms: _188  and  _189
REMARK   76  A    between atoms: _191  and  _193
REMARK   77  A    between atoms: _193  and  _194
REMARK   78  A    between atoms: _193  and  _196
REMARK   79  A    between atoms: _196  and  _197
REMARK   80  A    between atoms: _207  and  _209
REMARK   81  A    between atoms: _209  and  _210
REMARK   82  A    between atoms: _213  and  _215
REMARK   83  A    between atoms: _215  and  _216
REMARK   84  A    between atoms: _219  and  _221
REMARK   85  A    between atoms: _221  and  _222
REMARK   86  A    between atoms: _221  and  _224
REMARK   87  A    between atoms: _224  and  _225
REMARK   88  A    between atoms: _228  and  _230
REMARK   89  A    between atoms: _230  and  _231
REMARK   90  A    between atoms: _230  and  _233
REMARK   91  A    between atoms: _233  and  _234
REMARK   92  A    between atoms: _234  and  _235
REMARK   93  A    between atoms: _240  and  _242
REMARK   94  A    between atoms: _242  and  _243
REMARK   95  A    between atoms: _242  and  _245
REMARK   96  A    between atoms: _245  and  _246
REMARK   97  A    between atoms: _249  and  _251
REMARK   98  A    between atoms: _251  and  _252
REMARK   99  A    between atoms: _251  and  _254
REMARK  100  A    between atoms: _254  and  _255
REMARK  101  A    between atoms: _258  and  _260
REMARK  102  A    between atoms: _260  and  _261
REMARK  103  A    between atoms: _260  and  _263
REMARK  104  A    between atoms: _263  and  _264
REMARK  105  A    between atoms: _267  and  _269
REMARK  106  A    between atoms: _269  and  _270
REMARK  107  A    between atoms: _269  and  _272
REMARK  108  A    between atoms: _272  and  _273
REMARK  109  A    between atoms: _275  and  _277
REMARK  110  A    between atoms: _277  and  _278
REMARK  111  A    between atoms: _277  and  _280
REMARK  112  A    between atoms: _283  and  _285
REMARK  113  A    between atoms: _285  and  _286
REMARK  114  A    between atoms: _285  and  _288
REMARK  115  A    between atoms: _288  and  _289
REMARK  116  A    between atoms: _289  and  _290
REMARK  117  A    between atoms: _290  and  _291
REMARK  118  A    between atoms: _291  and  _292
REMARK  119  A    between atoms: _296  and  _298
REMARK  120  A    between atoms: _298  and  _299
REMARK  121  A    between atoms: _298  and  _301
REMARK  122  A    between atoms: _301  and  _302
REMARK  123  A    between atoms: _313  and  _314
REMARK  124  A    between atoms: _319  and  _321
REMARK  125  A    between atoms: _321  and  _322
REMARK  126  A    between atoms: _321  and  _324
REMARK  127  A    between atoms: _324  and  _325
REMARK  128  A    between atoms: _330  and  _332
REMARK  129  A    between atoms: _332  and  _333
REMARK  130  A    between atoms: _332  and  _335
REMARK  131  A    between atoms: _335  and  _336
REMARK  132  A    between atoms: _339  and  _341
REMARK  133  A    between atoms: _341  and  _342
REMARK  134  A    between atoms: _341  and  _344
REMARK  135  A    between atoms: _347  and  _349
REMARK  136  A    between atoms: _349  and  _350
REMARK  137  A    between atoms: _352  and  _354
REMARK  138  A    between atoms: _354  and  _355
REMARK  139  A    between atoms: _354  and  _357
REMARK  140  A    between atoms: _357  and  _358
REMARK  141  A    between atoms: _358  and  _359
REMARK  142  A    between atoms: _359  and  _360
REMARK  143  A    between atoms: _360  and  _361
REMARK  144  A    between atoms: _365  and  _367
REMARK  145  A    between atoms: _367  and  _368
REMARK  146  A    between atoms: _367  and  _370
REMARK  147  A    between atoms: _370  and  _371
REMARK  148  A    between atoms: _374  and  _376
REMARK  149  A    between atoms: _376  and  _377
REMARK  150  A    between atoms: _380  and  _382
REMARK  151  A    between atoms: _382  and  _383
REMARK  152  A    between atoms: _385  and  _387
REMARK  153  A    between atoms: _387  and  _388
REMARK  154  A    between atoms: _387  and  _390
REMARK  155  A    between atoms: _390  and  _391
REMARK  156  A    between atoms: _394  and  _396
REMARK  157  A    between atoms: _396  and  _397
REMARK  158  A    between atoms: _396  and  _399
REMARK  159  A    between atoms: _399  and  _400
REMARK  160  A    between atoms: _403  and  _405
REMARK  161  A    between atoms: _405  and  _406
REMARK  162  A    between atoms: _409  and  _411
REMARK  163  A    between atoms: _411  and  _412
REMARK  164  A    between atoms: _411  and  _414
REMARK  165  A    between atoms: _414  and  _415
REMARK  166  A    between atoms: _415  and  _416
REMARK  167  A    between atoms: _419  and  _421
REMARK  168  A    between atoms: _421  and  _422
REMARK  169  A    between atoms: _421  and  _424
REMARK  170  A    between atoms: _427  and  _429
REMARK  171  A    between atoms: _429  and  _430
REMARK  172  A    between atoms: _429  and  _432
REMARK  173  A    between atoms: _432  and  _433
REMARK  174  A    between atoms: _436  and  _438
REMARK  175  A    between atoms: _438  and  _439
REMARK  176  A    between atoms: _441  and  _443
REMARK  177  A    between atoms: _443  and  _444
REMARK  178  A    between atoms: _443  and  _446
REMARK  179  A    between atoms: _449  and  _451
REMARK  180  A    between atoms: _451  and  _452
REMARK  181  A    between atoms: _454  and  _456
REMARK  182  A    between atoms: _456  and  _457
REMARK  183  A    between atoms: _456  and  _459
REMARK  184  A    between atoms: _459  and  _460
REMARK  185  A    between atoms: _463  and  _465
REMARK  186  A    between atoms: _465  and  _466
REMARK  187  A    between atoms: _465  and  _468
REMARK  188  A    between atoms: _468  and  _469
REMARK  189  A    between atoms: _474  and  _476
REMARK  190  A    between atoms: _476  and  _477
REMARK  191  A    between atoms: _476  and  _479
REMARK  192  A    between atoms: _482  and  _484
REMARK  193  A    between atoms: _484  and  _485
REMARK  194  A    between atoms: _484  and  _487
REMARK  195  A    between atoms: _487  and  _488
REMARK  196  A    between atoms: _488  and  _489
REMARK  197  A    between atoms: _494  and  _496
REMARK  198  A    between atoms: _496  and  _497
REMARK  199  A    between atoms: _501  and  _502
REMARK  200  A    between atoms: _507  and  _509
REMARK  201  A    between atoms: _509  and  _510
REMARK  202  A    between atoms: _509  and  _512
REMARK  203  A    between atoms: _512  and  _513
REMARK  204  A    between atoms: _513  and  _514
REMARK  205  A    between atoms: _517  and  _519
REMARK  206  A    between atoms: _519  and  _520
REMARK  207  A    between atoms: _519  and  _522
REMARK  208  A    between atoms: _525  and  _527
REMARK  209  A    between atoms: _527  and  _528
REMARK  210  A    between atoms: _527  and  _530
REMARK  211  A    between atoms: _530  and  _531
REMARK  212  A    between atoms: _535  and  _536
REMARK  213  A    between atoms: _541  and  _543
REMARK  214  A    between atoms: _543  and  _544
REMARK  215  A    between atoms: _543  and  _546
REMARK  216  A    between atoms: _546  and  _547
REMARK  217  A    between atoms: _550  and  _552
REMARK  218  A    between atoms: _552  and  _553
REMARK  219  A    between atoms: _556  and  _558
REMARK  220  A    between atoms: _558  and  _559
REMARK  221  A    between atoms: _558  and  _561
REMARK  222  A    between atoms: _561  and  _562
REMARK  223  A    between atoms: _565  and  _567
REMARK  224  A    between atoms: _567  and  _568
REMARK  225  A    between atoms: _567  and  _570
REMARK  226  A    between atoms: _570  and  _571
REMARK  227  A    between atoms: _573  and  _575
REMARK  228  A    between atoms: _575  and  _576
REMARK  229  A    between atoms: _578  and  _580
REMARK  230  A    between atoms: _580  and  _581
REMARK  231  A    between atoms: _580  and  _583
REMARK  232  A    between atoms: _583  and  _584
REMARK  233  A    between atoms: _587  and  _589
REMARK  234  A    between atoms: _589  and  _590
REMARK  235  A    between atoms: _589  and  _592
REMARK                            x       y       z     vdW  Elec       q    Type
REMARK                         _______ _______ _______ _____ _____    ______ ____
ROOT
ATOM      1  C   PRO A   4      -9.999   6.308   9.728  0.00  0.00    +0.241 C 
ATOM      2  O   PRO A   4     -11.143   6.757   9.789  0.00  0.00    -0.273 OA
ATOM      3  N   ASP A   5      -9.708   5.148   9.148  0.00  0.00    -0.297 N 
ATOM      4  H   ASP A   5      -8.720   4.826   9.118  0.00  0.00    +0.150 HD
ENDROOT
BRANCH   1   8
ATOM      5  C   ASP A   3      -7.660   5.371  11.611  0.00  0.00    +0.244 C 
ATOM      6  O   ASP A   3      -8.665   5.099  12.266  0.00  0.00    -0.273 OA
ATOM      7  N   PRO A   4      -7.654   6.309  10.649  0.00  0.00    -0.272 N 
ATOM      8  CA  PRO A   4      -8.846   7.109  10.337  0.00  0.00    +0.152 C 
ATOM      9  CB  PRO A   4      -8.320   8.143   9.333  0.00  0.00    +0.031 C 
ATOM     10  CG  PRO A   4      -7.095   7.526   8.752  0.00  0.00    +0.024 C 
ATOM     11  CD  PRO A   4      -6.481   6.747   9.872  0.00  0.00    +0.094 C 
BRANCH   5  12
ATOM     12  CA  ASP A   3      -6.346   4.635  11.875  0.00  0.00    +0.160 C 
BRANCH  12  14
ATOM     13  C   VAL A   2      -4.965   4.008  13.788  0.00  0.00    +0.241 C 
ATOM     14  N   ASP A   3      -6.129   4.442  13.309  0.00  0.00    -0.297 N 
ATOM     15  H   ASP A   3      -6.904   4.649  13.971  0.00  0.00    +0.150 HD
ATOM     16  O   VAL A   2      -3.978   3.842  13.074  0.00  0.00    -0.273 OA
BRANCH  13  17
ATOM     17  CA  VAL A   2      -4.880   3.708  15.290  0.00  0.00    +0.148 C 
BRANCH  17  20
ATOM     18  C   GLU A   1      -4.774   5.138  17.243  0.00  0.00    +0.238 C 
ATOM     19  O   GLU A   1      -3.601   4.826  17.443  0.00  0.00    -0.274 OA
ATOM     20  N   VAL A   2      -5.451   4.725  16.173  0.00  0.00    -0.297 N 
ATOM     21  H   VAL A   2      -6.388   5.126  15.965  0.00  0.00    +0.150 HD
BRANCH  18  22
ATOM     22  CA  GLU A   1      -5.514   6.022  18.243  0.00  0.00    +0.145 C 
BRANCH  22  23
ATOM     23  N   GLU A   1      -6.669   6.690  17.655  0.00  0.00    -0.238 NA
ATOM     24  H   GLU A   1      -7.605   6.243  17.734  0.00  0.00    +0.142 HD
ENDBRANCH  22  23
BRANCH  22  25
ATOM     25  CB  GLU A   1      -5.940   5.170  19.445  0.00  0.00    +0.038 C 
BRANCH  25  26
ATOM     26  CG  GLU A   1      -6.396   5.952  20.665  0.00  0.00    +0.116 C 
BRANCH  26  27
ATOM     27  CD  GLU A   1      -6.852   5.046  21.797  0.00  0.00    +0.365 C 
ATOM     28  OE2 GLU A   1      -6.180   5.018  22.849  0.00  0.00    -0.246 OA
ATOM     29  OE1 GLU A   1      -7.882   4.356  21.635  0.00  0.00    -0.246 OA
ENDBRANCH  26  27
ENDBRANCH  25  26
ENDBRANCH  22  25
ENDBRANCH  18  22
ENDBRANCH  17  20
BRANCH  17  30
ATOM     30  CB  VAL A   2      -5.538   2.327  15.554  0.00  0.00    +0.027 C 
ATOM     31  CG2 VAL A   2      -5.088   1.774  16.897  0.00  0.00    +0.002 C 
ATOM     32  CG1 VAL A   2      -7.058   2.422  15.504  0.00  0.00    +0.002 C 
ENDBRANCH  17  30
ENDBRANCH  13  17
ENDBRANCH  12  14
BRANCH  12  33
ATOM     33  CB  ASP A   3      -6.345   3.283  11.150  0.00  0.00    +0.143 C 
BRANCH  33  34
ATOM     34  CG  ASP A   3      -6.289   3.428   9.642  0.00  0.00    +0.367 C 
ATOM     35  OD2 ASP A   3      -5.170   3.543   9.099  0.00  0.00    -0.246 OA
ATOM     36  OD1 ASP A   3      -7.360   3.430   8.999  0.00  0.00    -0.246 OA
ENDBRANCH  33  34
ENDBRANCH  12  33
ENDBRANCH   5  12
ENDBRANCH   1   8
BRANCH   3  37
ATOM     37  CA  ASP A   5     -10.751   4.318   8.553  0.00  0.00    +0.160 C 
BRANCH  37  38
ATOM     38  C   ASP A   5     -11.199   3.214   9.504  0.00  0.00    +0.241 C 
ATOM     39  N   ALA A   6     -10.738   3.286  10.747  0.00  0.00    -0.297 N 
ATOM     40  H   ALA A   6     -10.134   4.088  11.019  0.00  0.00    +0.150 HD
ATOM     41  O   ASP A   5     -11.950   2.319   9.118  0.00  0.00    -0.273 OA
BRANCH  39  42
ATOM     42  CA  ALA A   6     -11.059   2.267  11.739  0.00  0.00    +0.149 C 
ATOM     43  CB  ALA A   6      -9.924   2.140  12.742  0.00  0.00    +0.031 C 
BRANCH  42  44
ATOM     44  C   ALA A   6     -12.366   2.561  12.467  0.00  0.00    +0.241 C 
ATOM     45  N   THR A   7     -12.932   1.524  13.077  0.00  0.00    -0.295 N 
ATOM     46  H   THR A   7     -12.563   0.569  12.893  0.00  0.00    +0.150 HD
ATOM     47  O   ALA A   6     -12.850   3.694  12.470  0.00  0.00    -0.273 OA
BRANCH  45  48
ATOM     48  CA  THR A   7     -14.051   1.682  13.994  0.00  0.00    +0.176 C 
BRANCH  48  49
ATOM     49  C   THR A   7     -13.917   0.646  15.105  0.00  0.00    +0.243 C 
ATOM     50  N   SER A   8     -14.811   0.700  16.084  0.00  0.00    -0.296 N 
ATOM     51  H   SER A   8     -15.539   1.442  16.066  0.00  0.00    +0.150 HD
ATOM     52  O   THR A   7     -13.004  -0.177  15.083  0.00  0.00    -0.273 OA
BRANCH  50  53
ATOM     53  CA  SER A   8     -14.796  -0.258  17.186  0.00  0.00    +0.166 C 
BRANCH  53  54
ATOM     54  CB  SER A   8     -16.217  -0.531  17.640  0.00  0.00    +0.229 C 
ATOM     55  OG  SER A   8     -17.136   0.186  17.256  0.00  0.00    -0.286 OA
ENDBRANCH  53  54
BRANCH  53  56
ATOM     56  C   SER A   8     -13.962   0.264  18.356  0.00  0.00    +0.165 C 
BRANCH  56  57
ATOM     57  O   SER A   8     -14.608   1.354  18.995  0.00  0.00    -0.380 OA
ATOM     58  H   SER A   8     -14.736   2.088  18.343  0.00  0.00    +0.211 HD
ENDBRANCH  56  57
ENDBRANCH  53  56
ENDBRANCH  50  53
ENDBRANCH  48  49
BRANCH  48  59
ATOM     59  CB  THR A   7     -15.418   1.534  13.286  0.00  0.00    +0.137 C 
ATOM     60  CG2 THR A   7     -15.662   0.091  12.862  0.00  0.00    +0.034 C 
BRANCH  59  61
ATOM     61  OG1 THR A   7     -16.465   1.957  14.169  0.00  0.00    -0.382 OA
ATOM     62  HG1 THR A   7     -16.323   2.905  14.417  0.00  0.00    +0.210 HD
ENDBRANCH  59  61
ENDBRANCH  48  59
ENDBRANCH  45  48
ENDBRANCH  42  44
ENDBRANCH  39  42
ENDBRANCH  37  38
BRANCH  37  63
ATOM     63  CB  ASP A   5     -10.268   3.703   7.238  0.00  0.00    +0.143 C 
BRANCH  63  64
ATOM     64  CG  ASP A   5     -10.171   4.719   6.121  0.00  0.00    +0.367 C 
ATOM     65  OD2 ASP A   5     -11.089   5.558   6.001  0.00  0.00    -0.246 OA
ATOM     66  OD1 ASP A   5      -9.180   4.679   5.363  0.00  0.00    -0.246 OA
ENDBRANCH  63  64
ENDBRANCH  37  63
ENDBRANCH   3  37
TORSDOF 27
REMARK  Name = ../refined-set-2016/4xtz/4xtz_pocket.pdb
REMARK  235 active torsions:
REMARK  status: ('A' for Active; 'I' for Inactive)
REMARK    1  A    between atoms: _1  and  _3
REMARK    2  A    between atoms: _3  and  _4
REMARK    3  A    between atoms: _3  and  _6
REMARK    4  A    between atoms: _6  and  _7
REMARK    5  A    between atoms: _10  and  _12
REMARK    6  A    between atoms: _12  and  _13
REMARK    7  A    between atoms: _15  and  _17
REMARK    8  A    between atoms: _17  and  _18
REMARK    9  A    between atoms: _17  and  _20
REMARK   10  A    between atoms: _20  and  _21
REMARK   11  A    between atoms: _23  and  _25
REMARK   12  A    between atoms: _25  and  _26
REMARK   13  A    between atoms: _25  and  _28
REMARK   14  A    between atoms: _28  and  _29
REMARK   15  A    between atoms: _32  and  _34
REMARK   16  A    between atoms: _34  and  _35
REMARK   17  A    between atoms: _34  and  _37
REMARK   18  A    between atoms: _37  and  _38
REMARK   19  A    between atoms: _43  and  _45
REMARK   20  A    between atoms: _45  and  _46
REMARK   21  A    between atoms: _49  and  _51
REMARK   22  A    between atoms: _51  and  _52
REMARK   23  A    between atoms: _51  and  _54
REMARK   24  A    between atoms: _54  and  _55
REMARK   25  A    between atoms: _58  and  _60
REMARK   26  A    between atoms: _60  and  _61
REMARK   27  A    between atoms: _60  and  _63
REMARK   28  A    between atoms: _63  and  _64
REMARK   29  A    between atoms: _67  and  _69
REMARK   30  A    between atoms: _69  and  _70
REMARK   31  A    between atoms: _69  and  _72
REMARK   32  A    between atoms: _72  and  _73
REMARK   33  A    between atoms: _76  and  _78
REMARK   34  A    between atoms: _78  and  _79
REMARK   35  A    between atoms: _82  and  _84
REMARK   36  A    between atoms: _84  and  _85
REMARK   37  A    between atoms: _84  and  _87
REMARK   38  A    between atoms: _87  and  _88
REMARK   39  A    between atoms: _88  and  _89
REMARK   40  A    between atoms: _94  and  _96
REMARK   41  A    between atoms: _96  and  _97
REMARK   42  A    between atoms: _96  and  _99
REMARK   43  A    between atoms: _99  and  _100
REMARK   44  A    between atoms: _103  and  _105
REMARK   45  A    between atoms: _105  and  _106
REMARK   46  A    between atoms: _109  and  _111
REMARK   47  A    between atoms: _111  and  _112
REMARK   48  A    between atoms: _114  and  _116
REMARK   49  A    between atoms: _116  and  _117
REMARK   50  A    between atoms: _116  and  _119
REMARK   51  A    between atoms: _119  and  _120
REMARK   52  A    between atoms: _120  and  _121
REMARK   53  A    between atoms: _121  and  _122
REMARK   54  A    between atoms: _131  and  _133
REMARK   55  A    between atoms: _133  and  _134
REMARK   56  A    between atoms: _136  and  _138
REMARK   57  A    between atoms: _138  and  _139
REMARK   58  A    between atoms: _138  and  _141
REMARK   59  A    between atoms: _141  and  _142
REMARK   60  A    between atoms: _142  and  _143
REMARK   61  A    between atoms: _143  and  _144
REMARK   62  A    between atoms: _153  and  _155
REMARK   63  A    between atoms: _155  and  _156
REMARK   64  A    between atoms: _155  and  _158
REMARK   65  A    between atoms: _158  and  _159
REMARK   66  A    between atoms: _164  and  _166
REMARK   67  A    between atoms: _166  and  _167
REMARK   68  A    between atoms: _169  and  _171
REMARK   69  A    between atoms: _171  and  _172
REMARK   70  A    between atoms: _171  and  _174
REMARK   71  A    between atoms: _174  and  _175
REMARK   72  A    between atoms: _175  and  _176
REMARK   73  A    between atoms: _176  and  _177
REMARK   74  A    between atoms: _186  and  _188
REMARK   75  A    between atoms: _188  and  _189
REMARK   76  A    between atoms: _191  and  _193
REMARK   77  A    between atoms: _193  and  _194
REMARK   78  A    between atoms: _193  and  _196
REMARK   79  A    between atoms: _196  and  _197
REMARK   80  A    between atoms: _207  and  _209
REMARK   81  A    between atoms: _209  and  _210
REMARK   82  A    between atoms: _213  and  _215
REMARK   83  A    between atoms: _215  and  _216
REMARK   84  A    between atoms: _219  and  _221
REMARK   85  A    between atoms: _221  and  _222
REMARK   86  A    between atoms: _221  and  _224
REMARK   87  A    between atoms: _224  and  _225
REMARK   88  A    between atoms: _228  and  _230
REMARK   89  A    between atoms: _230  and  _231
REMARK   90  A    between atoms: _230  and  _233
REMARK   91  A    between atoms: _233  and  _234
REMARK   92  A    between atoms: _234  and  _235
REMARK   93  A    between atoms: _240  and  _242
REMARK   94  A    between atoms: _242  and  _243
REMARK   95  A    between atoms: _242  and  _245
REMARK   96  A    between atoms: _245  and  _246
REMARK   97  A    between atoms: _249  and  _251
REMARK   98  A    between atoms: _251  and  _252
REMARK   99  A    between atoms: _251  and  _254
REMARK  100  A    between atoms: _254  and  _255
REMARK  101  A    between atoms: _258  and  _260
REMARK  102  A    between atoms: _260  and  _261
REMARK  103  A    between atoms: _260  and  _263
REMARK  104  A    between atoms: _263  and  _264
REMARK  105  A    between atoms: _267  and  _269
REMARK  106  A    between atoms: _269  and  _270
REMARK  107  A    between atoms: _269  and  _272
REMARK  108  A    between atoms: _272  and  _273
REMARK  109  A    between atoms: _275  and  _277
REMARK  110  A    between atoms: _277  and  _278
REMARK  111  A    between atoms: _277  and  _280
REMARK  112  A    between atoms: _283  and  _285
REMARK  113  A    between atoms: _285  and  _286
REMARK  114  A    between atoms: _285  and  _288
REMARK  115  A    between atoms: _288  and  _289
REMARK  116  A    between atoms: _289  and  _290
REMARK  117  A    between atoms: _290  and  _291
REMARK  118  A    between atoms: _291  and  _292
REMARK  119  A    between atoms: _296  and  _298
REMARK  120  A    between atoms: _298  and  _299
REMARK  121  A    between atoms: _298  and  _301
REMARK  122  A    between atoms: _301  and  _302
REMARK  123  A    between atoms: _313  and  _314
REMARK  124  A    between atoms: _319  and  _321
REMARK  125  A    between atoms: _321  and  _322
REMARK  126  A    between atoms: _321  and  _324
REMARK  127  A    between atoms: _324  and  _325
REMARK  128  A    between atoms: _330  and  _332
REMARK  129  A    between atoms: _332  and  _333
REMARK  130  A    between atoms: _332  and  _335
REMARK  131  A    between atoms: _335  and  _336
REMARK  132  A    between atoms: _339  and  _341
REMARK  133  A    between atoms: _341  and  _342
REMARK  134  A    between atoms: _341  and  _344
REMARK  135  A    between atoms: _347  and  _349
REMARK  136  A    between atoms: _349  and  _350
REMARK  137  A    between atoms: _352  and  _354
REMARK  138  A    between atoms: _354  and  _355
REMARK  139  A    between atoms: _354  and  _357
REMARK  140  A    between atoms: _357  and  _358
REMARK  141  A    between atoms: _358  and  _359
REMARK  142  A    between atoms: _359  and  _360
REMARK  143  A    between atoms: _360  and  _361
REMARK  144  A    between atoms: _365  and  _367
REMARK  145  A    between atoms: _367  and  _368
REMARK  146  A    between atoms: _367  and  _370
REMARK  147  A    between atoms: _370  and  _371
REMARK  148  A    between atoms: _374  and  _376
REMARK  149  A    between atoms: _376  and  _377
REMARK  150  A    between atoms: _380  and  _382
REMARK  151  A    between atoms: _382  and  _383
REMARK  152  A    between atoms: _385  and  _387
REMARK  153  A    between atoms: _387  and  _388
REMARK  154  A    between atoms: _387  and  _390
REMARK  155  A    between atoms: _390  and  _391
REMARK  156  A    between atoms: _394  and  _396
REMARK  157  A    between atoms: _396  and  _397
REMARK  158  A    between atoms: _396  and  _399
REMARK  159  A    between atoms: _399  and  _400
REMARK  160  A    between atoms: _403  and  _405
REMARK  161  A    between atoms: _405  and  _406
REMARK  162  A    between atoms: _409  and  _411
REMARK  163  A    between atoms: _411  and  _412
REMARK  164  A    between atoms: _411  and  _414
REMARK  165  A    between atoms: _414  and  _415
REMARK  166  A    between atoms: _415  and  _416
REMARK  167  A    between atoms: _419  and  _421
REMARK  168  A    between atoms: _421  and  _422
REMARK  169  A    between atoms: _421  and  _424
REMARK  170  A    between atoms: _427  and  _429
REMARK  171  A    between atoms: _429  and  _430
REMARK  172  A    between atoms: _429  and  _432
REMARK  173  A    between atoms: _432  and  _433
REMARK  174  A    between atoms: _436  and  _438
REMARK  175  A    between atoms: _438  and  _439
REMARK  176  A    between atoms: _441  and  _443
REMARK  177  A    between atoms: _443  and  _444
REMARK  178  A    between atoms: _443  and  _446
REMARK  179  A    between atoms: _449  and  _451
REMARK  180  A    between atoms: _451  and  _452
REMARK  181  A    between atoms: _454  and  _456
REMARK  182  A    between atoms: _456  and  _457
REMARK  183  A    between atoms: _456  and  _459
REMARK  184  A    between atoms: _459  and  _460
REMARK  185  A    between atoms: _463  and  _465
REMARK  186  A    between atoms: _465  and  _466
REMARK  187  A    between atoms: _465  and  _468
REMARK  188  A    between atoms: _468  and  _469
REMARK  189  A    between atoms: _474  and  _476
REMARK  190  A    between atoms: _476  and  _477
REMARK  191  A    between atoms: _476  and  _479
REMARK  192  A    between atoms: _482  and  _484
REMARK  193  A    between atoms: _484  and  _485
REMARK  194  A    between atoms: _484  and  _487
REMARK  195  A    between atoms: _487  and  _488
REMARK  196  A    between atoms: _488  and  _489
REMARK  197  A    between atoms: _494  and  _496
REMARK  198  A    between atoms: _496  and  _497
REMARK  199  A    between atoms: _501  and  _502
REMARK  200  A    between atoms: _507  and  _509
REMARK  201  A    between atoms: _509  and  _510
REMARK  202  A    between atoms: _509  and  _512
REMARK  203  A    between atoms: _512  and  _513
REMARK  204  A    between atoms: _513  and  _514
REMARK  205  A    between atoms: _517  and  _519
REMARK  206  A    between atoms: _519  and  _520
REMARK  207  A    between atoms: _519  and  _522
REMARK  208  A    between atoms: _525  and  _527
REMARK  209  A    between atoms: _527  and  _528
REMARK  210  A    between atoms: _527  and  _530
REMARK  211  A    between atoms: _530  and  _531
REMARK  212  A    between atoms: _535  and  _536
REMARK  213  A    between atoms: _541  and  _543
REMARK  214  A    between atoms: _543  and  _544
REMARK  215  A    between atoms: _543  and  _546
REMARK  216  A    between atoms: _546  and  _547
REMARK  217  A    between atoms: _550  and  _552
REMARK  218  A    between atoms: _552  and  _553
REMARK  219  A    between atoms: _556  and  _558
REMARK  220  A    between atoms: _558  and  _559
REMARK  221  A    between atoms: _558  and  _561
REMARK  222  A    between atoms: _561  and  _562
REMARK  223  A    between atoms: _565  and  _567
REMARK  224  A    between atoms: _567  and  _568
REMARK  225  A    between atoms: _567  and  _570
REMARK  226  A    between atoms: _570  and  _571
REMARK  227  A    between atoms: _573  and  _575
REMARK  228  A    between atoms: _575  and  _576
REMARK  229  A    between atoms: _578  and  _580
REMARK  230  A    between atoms: _580  and  _581
REMARK  231  A    between atoms: _580  and  _583
REMARK  232  A    between atoms: _583  and  _584
REMARK  233  A    between atoms: _587  and  _589
REMARK  234  A    between atoms: _589  and  _590
REMARK  235  A    between atoms: _589  and  _592
REMARK                            x       y       z     vdW  Elec       q    Type
REMARK                         _______ _______ _______ _____ _____    ______ ____
ROOT
ATOM      1  CA  ASP A   2      -6.440  -4.339  -1.330  0.00  0.00    +0.160 C 
ENDROOT
BRANCH   1   4
ATOM      2  C   GLY A   1      -5.609  -6.489  -2.105  0.00  0.00    +0.240 C 
ATOM      3  O   GLY A   1      -6.254  -7.106  -1.256  0.00  0.00    -0.274 OA
ATOM      4  N   ASP A   2      -5.618  -5.166  -2.202  0.00  0.00    -0.297 N 
ATOM      5  H   ASP A   2      -5.022  -4.707  -2.920  0.00  0.00    +0.150 HD
BRANCH   2   6
ATOM      6  CA  GLY A   1      -4.743  -7.220  -3.108  0.00  0.00    +0.169 C 
BRANCH   6   7
ATOM      7  N   GLY A   1      -4.612  -8.632  -2.812  0.00  0.00    -0.236 NA
ATOM      8  H   GLY A   1      -4.878  -8.983  -1.870  0.00  0.00    +0.142 HD
ENDBRANCH   6   7
ENDBRANCH   2   6
ENDBRANCH   1   4
BRANCH   1   9
ATOM      9  C   ASP A   2      -7.668  -3.854  -2.083  0.00  0.00    +0.241 C 
ATOM     10  N   VAL A   3      -8.838  -4.060  -1.492  0.00  0.00    -0.298 N 
ATOM     11  H   VAL A   3      -8.863  -4.484  -0.543  0.00  0.00    +0.150 HD
ATOM     12  O   ASP A   2      -7.559  -3.309  -3.179  0.00  0.00    -0.273 OA
BRANCH  10  13
ATOM     13  CA  VAL A   3     -10.087  -3.703  -2.148  0.00  0.00    +0.137 C 
BRANCH  13  14
ATOM     14  CB  VAL A   3     -11.149  -4.804  -1.959  0.00  0.00    +0.026 C 
ATOM     15  CG2 VAL A   3     -12.486  -4.367  -2.539  0.00  0.00    +0.002 C 
ATOM     16  CG1 VAL A   3     -10.684  -6.098  -2.604  0.00  0.00    +0.002 C 
ENDBRANCH  13  14
BRANCH  13  17
ATOM     17  C   VAL A   3     -10.643  -2.379  -1.637  0.00  0.00    +0.227 C 
ATOM     18  O   VAL A   3     -10.709  -2.140  -0.431  0.00  0.00    -0.286 OA
ENDBRANCH  13  17
ENDBRANCH  10  13
ENDBRANCH   1   9
BRANCH   1  19
ATOM     19  CB  ASP A   2      -5.635  -3.155  -0.797  0.00  0.00    +0.143 C 
BRANCH  19  20
ATOM     20  CG  ASP A   2      -4.332  -3.584  -0.158  0.00  0.00    +0.367 C 
ATOM     21  OD2 ASP A   2      -4.337  -4.590   0.583  0.00  0.00    -0.246 OA
ATOM     22  OD1 ASP A   2      -3.301  -2.921  -0.400  0.00  0.00    -0.246 OA
ENDBRANCH  19  20
ENDBRANCH   1  19
TORSDOF 9
REMARK  Name = ../refined-set-2016/4xtz/4xtz_pocket.pdb
REMARK  235 active torsions:
REMARK  status: ('A' for Active; 'I' for Inactive)
REMARK    1  A    between atoms: _1  and  _3
REMARK    2  A    between atoms: _3  and  _4
REMARK    3  A    between atoms: _3  and  _6
REMARK    4  A    between atoms: _6  and  _7
REMARK    5  A    between atoms: _10  and  _12
REMARK    6  A    between atoms: _12  and  _13
REMARK    7  A    between atoms: _15  and  _17
REMARK    8  A    between atoms: _17  and  _18
REMARK    9  A    between atoms: _17  and  _20
REMARK   10  A    between atoms: _20  and  _21
REMARK   11  A    between atoms: _23  and  _25
REMARK   12  A    between atoms: _25  and  _26
REMARK   13  A    between atoms: _25  and  _28
REMARK   14  A    between atoms: _28  and  _29
REMARK   15  A    between atoms: _32  and  _34
REMARK   16  A    between atoms: _34  and  _35
REMARK   17  A    between atoms: _34  and  _37
REMARK   18  A    between atoms: _37  and  _38
REMARK   19  A    between atoms: _43  and  _45
REMARK   20  A    between atoms: _45  and  _46
REMARK   21  A    between atoms: _49  and  _51
REMARK   22  A    between atoms: _51  and  _52
REMARK   23  A    between atoms: _51  and  _54
REMARK   24  A    between atoms: _54  and  _55
REMARK   25  A    between atoms: _58  and  _60
REMARK   26  A    between atoms: _60  and  _61
REMARK   27  A    between atoms: _60  and  _63
REMARK   28  A    between atoms: _63  and  _64
REMARK   29  A    between atoms: _67  and  _69
REMARK   30  A    between atoms: _69  and  _70
REMARK   31  A    between atoms: _69  and  _72
REMARK   32  A    between atoms: _72  and  _73
REMARK   33  A    between atoms: _76  and  _78
REMARK   34  A    between atoms: _78  and  _79
REMARK   35  A    between atoms: _82  and  _84
REMARK   36  A    between atoms: _84  and  _85
REMARK   37  A    between atoms: _84  and  _87
REMARK   38  A    between atoms: _87  and  _88
REMARK   39  A    between atoms: _88  and  _89
REMARK   40  A    between atoms: _94  and  _96
REMARK   41  A    between atoms: _96  and  _97
REMARK   42  A    between atoms: _96  and  _99
REMARK   43  A    between atoms: _99  and  _100
REMARK   44  A    between atoms: _103  and  _105
REMARK   45  A    between atoms: _105  and  _106
REMARK   46  A    between atoms: _109  and  _111
REMARK   47  A    between atoms: _111  and  _112
REMARK   48  A    between atoms: _114  and  _116
REMARK   49  A    between atoms: _116  and  _117
REMARK   50  A    between atoms: _116  and  _119
REMARK   51  A    between atoms: _119  and  _120
REMARK   52  A    between atoms: _120  and  _121
REMARK   53  A    between atoms: _121  and  _122
REMARK   54  A    between atoms: _131  and  _133
REMARK   55  A    between atoms: _133  and  _134
REMARK   56  A    between atoms: _136  and  _138
REMARK   57  A    between atoms: _138  and  _139
REMARK   58  A    between atoms: _138  and  _141
REMARK   59  A    between atoms: _141  and  _142
REMARK   60  A    between atoms: _142  and  _143
REMARK   61  A    between atoms: _143  and  _144
REMARK   62  A    between atoms: _153  and  _155
REMARK   63  A    between atoms: _155  and  _156
REMARK   64  A    between atoms: _155  and  _158
REMARK   65  A    between atoms: _158  and  _159
REMARK   66  A    between atoms: _164  and  _166
REMARK   67  A    between atoms: _166  and  _167
REMARK   68  A    between atoms: _169  and  _171
REMARK   69  A    between atoms: _171  and  _172
REMARK   70  A    between atoms: _171  and  _174
REMARK   71  A    between atoms: _174  and  _175
REMARK   72  A    between atoms: _175  and  _176
REMARK   73  A    between atoms: _176  and  _177
REMARK   74  A    between atoms: _186  and  _188
REMARK   75  A    between atoms: _188  and  _189
REMARK   76  A    between atoms: _191  and  _193
REMARK   77  A    between atoms: _193  and  _194
REMARK   78  A    between atoms: _193  and  _196
REMARK   79  A    between atoms: _196  and  _197
REMARK   80  A    between atoms: _207  and  _209
REMARK   81  A    between atoms: _209  and  _210
REMARK   82  A    between atoms: _213  and  _215
REMARK   83  A    between atoms: _215  and  _216
REMARK   84  A    between atoms: _219  and  _221
REMARK   85  A    between atoms: _221  and  _222
REMARK   86  A    between atoms: _221  and  _224
REMARK   87  A    between atoms: _224  and  _225
REMARK   88  A    between atoms: _228  and  _230
REMARK   89  A    between atoms: _230  and  _231
REMARK   90  A    between atoms: _230  and  _233
REMARK   91  A    between atoms: _233  and  _234
REMARK   92  A    between atoms: _234  and  _235
REMARK   93  A    between atoms: _240  and  _242
REMARK   94  A    between atoms: _242  and  _243
REMARK   95  A    between atoms: _242  and  _245
REMARK   96  A    between atoms: _245  and  _246
REMARK   97  A    between atoms: _249  and  _251
REMARK   98  A    between atoms: _251  and  _252
REMARK   99  A    between atoms: _251  and  _254
REMARK  100  A    between atoms: _254  and  _255
REMARK  101  A    between atoms: _258  and  _260
REMARK  102  A    between atoms: _260  and  _261
REMARK  103  A    between atoms: _260  and  _263
REMARK  104  A    between atoms: _263  and  _264
REMARK  105  A    between atoms: _267  and  _269
REMARK  106  A    between atoms: _269  and  _270
REMARK  107  A    between atoms: _269  and  _272
REMARK  108  A    between atoms: _272  and  _273
REMARK  109  A    between atoms: _275  and  _277
REMARK  110  A    between atoms: _277  and  _278
REMARK  111  A    between atoms: _277  and  _280
REMARK  112  A    between atoms: _283  and  _285
REMARK  113  A    between atoms: _285  and  _286
REMARK  114  A    between atoms: _285  and  _288
REMARK  115  A    between atoms: _288  and  _289
REMARK  116  A    between atoms: _289  and  _290
REMARK  117  A    between atoms: _290  and  _291
REMARK  118  A    between atoms: _291  and  _292
REMARK  119  A    between atoms: _296  and  _298
REMARK  120  A    between atoms: _298  and  _299
REMARK  121  A    between atoms: _298  and  _301
REMARK  122  A    between atoms: _301  and  _302
REMARK  123  A    between atoms: _313  and  _314
REMARK  124  A    between atoms: _319  and  _321
REMARK  125  A    between atoms: _321  and  _322
REMARK  126  A    between atoms: _321  and  _324
REMARK  127  A    between atoms: _324  and  _325
REMARK  128  A    between atoms: _330  and  _332
REMARK  129  A    between atoms: _332  and  _333
REMARK  130  A    between atoms: _332  and  _335
REMARK  131  A    between atoms: _335  and  _336
REMARK  132  A    between atoms: _339  and  _341
REMARK  133  A    between atoms: _341  and  _342
REMARK  134  A    between atoms: _341  and  _344
REMARK  135  A    between atoms: _347  and  _349
REMARK  136  A    between atoms: _349  and  _350
REMARK  137  A    between atoms: _352  and  _354
REMARK  138  A    between atoms: _354  and  _355
REMARK  139  A    between atoms: _354  and  _357
REMARK  140  A    between atoms: _357  and  _358
REMARK  141  A    between atoms: _358  and  _359
REMARK  142  A    between atoms: _359  and  _360
REMARK  143  A    between atoms: _360  and  _361
REMARK  144  A    between atoms: _365  and  _367
REMARK  145  A    between atoms: _367  and  _368
REMARK  146  A    between atoms: _367  and  _370
REMARK  147  A    between atoms: _370  and  _371
REMARK  148  A    between atoms: _374  and  _376
REMARK  149  A    between atoms: _376  and  _377
REMARK  150  A    between atoms: _380  and  _382
REMARK  151  A    between atoms: _382  and  _383
REMARK  152  A    between atoms: _385  and  _387
REMARK  153  A    between atoms: _387  and  _388
REMARK  154  A    between atoms: _387  and  _390
REMARK  155  A    between atoms: _390  and  _391
REMARK  156  A    between atoms: _394  and  _396
REMARK  157  A    between atoms: _396  and  _397
REMARK  158  A    between atoms: _396  and  _399
REMARK  159  A    between atoms: _399  and  _400
REMARK  160  A    between atoms: _403  and  _405
REMARK  161  A    between atoms: _405  and  _406
REMARK  162  A    between atoms: _409  and  _411
REMARK  163  A    between atoms: _411  and  _412
REMARK  164  A    between atoms: _411  and  _414
REMARK  165  A    between atoms: _414  and  _415
REMARK  166  A    between atoms: _415  and  _416
REMARK  167  A    between atoms: _419  and  _421
REMARK  168  A    between atoms: _421  and  _422
REMARK  169  A    between atoms: _421  and  _424
REMARK  170  A    between atoms: _427  and  _429
REMARK  171  A    between atoms: _429  and  _430
REMARK  172  A    between atoms: _429  and  _432
REMARK  173  A    between atoms: _432  and  _433
REMARK  174  A    between atoms: _436  and  _438
REMARK  175  A    between atoms: _438  and  _439
REMARK  176  A    between atoms: _441  and  _443
REMARK  177  A    between atoms: _443  and  _444
REMARK  178  A    between atoms: _443  and  _446
REMARK  179  A    between atoms: _449  and  _451
REMARK  180  A    between atoms: _451  and  _452
REMARK  181  A    between atoms: _454  and  _456
REMARK  182  A    between atoms: _456  and  _457
REMARK  183  A    between atoms: _456  and  _459
REMARK  184  A    between atoms: _459  and  _460
REMARK  185  A    between atoms: _463  and  _465
REMARK  186  A    between atoms: _465  and  _466
REMARK  187  A    between atoms: _465  and  _468
REMARK  188  A    between atoms: _468  and  _469
REMARK  189  A    between atoms: _474  and  _476
REMARK  190  A    between atoms: _476  and  _477
REMARK  191  A    between atoms: _476  and  _479
REMARK  192  A    between atoms: _482  and  _484
REMARK  193  A    between atoms: _484  and  _485
REMARK  194  A    between atoms: _484  and  _487
REMARK  195  A    between atoms: _487  and  _488
REMARK  196  A    between atoms: _488  and  _489
REMARK  197  A    between atoms: _494  and  _496
REMARK  198  A    between atoms: _496  and  _497
REMARK  199  A    between atoms: _501  and  _502
REMARK  200  A    between atoms: _507  and  _509
REMARK  201  A    between atoms: _509  and  _510
REMARK  202  A    between atoms: _509  and  _512
REMARK  203  A    between atoms: _512  and  _513
REMARK  204  A    between atoms: _513  and  _514
REMARK  205  A    between atoms: _517  and  _519
REMARK  206  A    between atoms: _519  and  _520
REMARK  207  A    between atoms: _519  and  _522
REMARK  208  A    between atoms: _525  and  _527
REMARK  209  A    between atoms: _527  and  _528
REMARK  210  A    between atoms: _527  and  _530
REMARK  211  A    between atoms: _530  and  _531
REMARK  212  A    between atoms: _535  and  _536
REMARK  213  A    between atoms: _541  and  _543
REMARK  214  A    between atoms: _543  and  _544
REMARK  215  A    between atoms: _543  and  _546
REMARK  216  A    between atoms: _546  and  _547
REMARK  217  A    between atoms: _550  and  _552
REMARK  218  A    between atoms: _552  and  _553
REMARK  219  A    between atoms: _556  and  _558
REMARK  220  A    between atoms: _558  and  _559
REMARK  221  A    between atoms: _558  and  _561
REMARK  222  A    between atoms: _561  and  _562
REMARK  223  A    between atoms: _565  and  _567
REMARK  224  A    between atoms: _567  and  _568
REMARK  225  A    between atoms: _567  and  _570
REMARK  226  A    between atoms: _570  and  _571
REMARK  227  A    between atoms: _573  and  _575
REMARK  228  A    between atoms: _575  and  _576
REMARK  229  A    between atoms: _578  and  _580
REMARK  230  A    between atoms: _580  and  _581
REMARK  231  A    between atoms: _580  and  _583
REMARK  232  A    between atoms: _583  and  _584
REMARK  233  A    between atoms: _587  and  _589
REMARK  234  A    between atoms: _589  and  _590
REMARK  235  A    between atoms: _589  and  _592
REMARK                            x       y       z     vdW  Elec       q    Type
REMARK                         _______ _______ _______ _____ _____    ______ ____
ROOT
ATOM      1  O   HOH     1      -3.646  -0.536  -0.586  0.00  0.00    +0.000 OA
ENDROOT
TORSDOF 0
REMARK  Name = ../refined-set-2016/4xtz/4xtz_pocket.pdb
REMARK  235 active torsions:
REMARK  status: ('A' for Active; 'I' for Inactive)
REMARK    1  A    between atoms: _1  and  _3
REMARK    2  A    between atoms: _3  and  _4
REMARK    3  A    between atoms: _3  and  _6
REMARK    4  A    between atoms: _6  and  _7
REMARK    5  A    between atoms: _10  and  _12
REMARK    6  A    between atoms: _12  and  _13
REMARK    7  A    between atoms: _15  and  _17
REMARK    8  A    between atoms: _17  and  _18
REMARK    9  A    between atoms: _17  and  _20
REMARK   10  A    between atoms: _20  and  _21
REMARK   11  A    between atoms: _23  and  _25
REMARK   12  A    between atoms: _25  and  _26
REMARK   13  A    between atoms: _25  and  _28
REMARK   14  A    between atoms: _28  and  _29
REMARK   15  A    between atoms: _32  and  _34
REMARK   16  A    between atoms: _34  and  _35
REMARK   17  A    between atoms: _34  and  _37
REMARK   18  A    between atoms: _37  and  _38
REMARK   19  A    between atoms: _43  and  _45
REMARK   20  A    between atoms: _45  and  _46
REMARK   21  A    between atoms: _49  and  _51
REMARK   22  A    between atoms: _51  and  _52
REMARK   23  A    between atoms: _51  and  _54
REMARK   24  A    between atoms: _54  and  _55
REMARK   25  A    between atoms: _58  and  _60
REMARK   26  A    between atoms: _60  and  _61
REMARK   27  A    between atoms: _60  and  _63
REMARK   28  A    between atoms: _63  and  _64
REMARK   29  A    between atoms: _67  and  _69
REMARK   30  A    between atoms: _69  and  _70
REMARK   31  A    between atoms: _69  and  _72
REMARK   32  A    between atoms: _72  and  _73
REMARK   33  A    between atoms: _76  and  _78
REMARK   34  A    between atoms: _78  and  _79
REMARK   35  A    between atoms: _82  and  _84
REMARK   36  A    between atoms: _84  and  _85
REMARK   37  A    between atoms: _84  and  _87
REMARK   38  A    between atoms: _87  and  _88
REMARK   39  A    between atoms: _88  and  _89
REMARK   40  A    between atoms: _94  and  _96
REMARK   41  A    between atoms: _96  and  _97
REMARK   42  A    between atoms: _96  and  _99
REMARK   43  A    between atoms: _99  and  _100
REMARK   44  A    between atoms: _103  and  _105
REMARK   45  A    between atoms: _105  and  _106
REMARK   46  A    between atoms: _109  and  _111
REMARK   47  A    between atoms: _111  and  _112
REMARK   48  A    between atoms: _114  and  _116
REMARK   49  A    between atoms: _116  and  _117
REMARK   50  A    between atoms: _116  and  _119
REMARK   51  A    between atoms: _119  and  _120
REMARK   52  A    between atoms: _120  and  _121
REMARK   53  A    between atoms: _121  and  _122
REMARK   54  A    between atoms: _131  and  _133
REMARK   55  A    between atoms: _133  and  _134
REMARK   56  A    between atoms: _136  and  _138
REMARK   57  A    between atoms: _138  and  _139
REMARK   58  A    between atoms: _138  and  _141
REMARK   59  A    between atoms: _141  and  _142
REMARK   60  A    between atoms: _142  and  _143
REMARK   61  A    between atoms: _143  and  _144
REMARK   62  A    between atoms: _153  and  _155
REMARK   63  A    between atoms: _155  and  _156
REMARK   64  A    between atoms: _155  and  _158
REMARK   65  A    between atoms: _158  and  _159
REMARK   66  A    between atoms: _164  and  _166
REMARK   67  A    between atoms: _166  and  _167
REMARK   68  A    between atoms: _169  and  _171
REMARK   69  A    between atoms: _171  and  _172
REMARK   70  A    between atoms: _171  and  _174
REMARK   71  A    between atoms: _174  and  _175
REMARK   72  A    between atoms: _175  and  _176
REMARK   73  A    between atoms: _176  and  _177
REMARK   74  A    between atoms: _186  and  _188
REMARK   75  A    between atoms: _188  and  _189
REMARK   76  A    between atoms: _191  and  _193
REMARK   77  A    between atoms: _193  and  _194
REMARK   78  A    between atoms: _193  and  _196
REMARK   79  A    between atoms: _196  and  _197
REMARK   80  A    between atoms: _207  and  _209
REMARK   81  A    between atoms: _209  and  _210
REMARK   82  A    between atoms: _213  and  _215
REMARK   83  A    between atoms: _215  and  _216
REMARK   84  A    between atoms: _219  and  _221
REMARK   85  A    between atoms: _221  and  _222
REMARK   86  A    between atoms: _221  and  _224
REMARK   87  A    between atoms: _224  and  _225
REMARK   88  A    between atoms: _228  and  _230
REMARK   89  A    between atoms: _230  and  _231
REMARK   90  A    between atoms: _230  and  _233
REMARK   91  A    between atoms: _233  and  _234
REMARK   92  A    between atoms: _234  and  _235
REMARK   93  A    between atoms: _240  and  _242
REMARK   94  A    between atoms: _242  and  _243
REMARK   95  A    between atoms: _242  and  _245
REMARK   96  A    between atoms: _245  and  _246
REMARK   97  A    between atoms: _249  and  _251
REMARK   98  A    between atoms: _251  and  _252
REMARK   99  A    between atoms: _251  and  _254
REMARK  100  A    between atoms: _254  and  _255
REMARK  101  A    between atoms: _258  and  _260
REMARK  102  A    between atoms: _260  and  _261
REMARK  103  A    between atoms: _260  and  _263
REMARK  104  A    between atoms: _263  and  _264
REMARK  105  A    between atoms: _267  and  _269
REMARK  106  A    between atoms: _269  and  _270
REMARK  107  A    between atoms: _269  and  _272
REMARK  108  A    between atoms: _272  and  _273
REMARK  109  A    between atoms: _275  and  _277
REMARK  110  A    between atoms: _277  and  _278
REMARK  111  A    between atoms: _277  and  _280
REMARK  112  A    between atoms: _283  and  _285
REMARK  113  A    between atoms: _285  and  _286
REMARK  114  A    between atoms: _285  and  _288
REMARK  115  A    between atoms: _288  and  _289
REMARK  116  A    between atoms: _289  and  _290
REMARK  117  A    between atoms: _290  and  _291
REMARK  118  A    between atoms: _291  and  _292
REMARK  119  A    between atoms: _296  and  _298
REMARK  120  A    between atoms: _298  and  _299
REMARK  121  A    between atoms: _298  and  _301
REMARK  122  A    between atoms: _301  and  _302
REMARK  123  A    between atoms: _313  and  _314
REMARK  124  A    between atoms: _319  and  _321
REMARK  125  A    between atoms: _321  and  _322
REMARK  126  A    between atoms: _321  and  _324
REMARK  127  A    between atoms: _324  and  _325
REMARK  128  A    between atoms: _330  and  _332
REMARK  129  A    between atoms: _332  and  _333
REMARK  130  A    between atoms: _332  and  _335
REMARK  131  A    between atoms: _335  and  _336
REMARK  132  A    between atoms: _339  and  _341
REMARK  133  A    between atoms: _341  and  _342
REMARK  134  A    between atoms: _341  and  _344
REMARK  135  A    between atoms: _347  and  _349
REMARK  136  A    between atoms: _349  and  _350
REMARK  137  A    between atoms: _352  and  _354
REMARK  138  A    between atoms: _354  and  _355
REMARK  139  A    between atoms: _354  and  _357
REMARK  140  A    between atoms: _357  and  _358
REMARK  141  A    between atoms: _358  and  _359
REMARK  142  A    between atoms: _359  and  _360
REMARK  143  A    between atoms: _360  and  _361
REMARK  144  A    between atoms: _365  and  _367
REMARK  145  A    between atoms: _367  and  _368
REMARK  146  A    between atoms: _367  and  _370
REMARK  147  A    between atoms: _370  and  _371
REMARK  148  A    between atoms: _374  and  _376
REMARK  149  A    between atoms: _376  and  _377
REMARK  150  A    between atoms: _380  and  _382
REMARK  151  A    between atoms: _382  and  _383
REMARK  152  A    between atoms: _385  and  _387
REMARK  153  A    between atoms: _387  and  _388
REMARK  154  A    between atoms: _387  and  _390
REMARK  155  A    between atoms: _390  and  _391
REMARK  156  A    between atoms: _394  and  _396
REMARK  157  A    between atoms: _396  and  _397
REMARK  158  A    between atoms: _396  and  _399
REMARK  159  A    between atoms: _399  and  _400
REMARK  160  A    between atoms: _403  and  _405
REMARK  161  A    between atoms: _405  and  _406
REMARK  162  A    between atoms: _409  and  _411
REMARK  163  A    between atoms: _411  and  _412
REMARK  164  A    between atoms: _411  and  _414
REMARK  165  A    between atoms: _414  and  _415
REMARK  166  A    between atoms: _415  and  _416
REMARK  167  A    between atoms: _419  and  _421
REMARK  168  A    between atoms: _421  and  _422
REMARK  169  A    between atoms: _421  and  _424
REMARK  170  A    between atoms: _427  and  _429
REMARK  171  A    between atoms: _429  and  _430
REMARK  172  A    between atoms: _429  and  _432
REMARK  173  A    between atoms: _432  and  _433
REMARK  174  A    between atoms: _436  and  _438
REMARK  175  A    between atoms: _438  and  _439
REMARK  176  A    between atoms: _441  and  _443
REMARK  177  A    between atoms: _443  and  _444
REMARK  178  A    between atoms: _443  and  _446
REMARK  179  A    between atoms: _449  and  _451
REMARK  180  A    between atoms: _451  and  _452
REMARK  181  A    between atoms: _454  and  _456
REMARK  182  A    between atoms: _456  and  _457
REMARK  183  A    between atoms: _456  and  _459
REMARK  184  A    between atoms: _459  and  _460
REMARK  185  A    between atoms: _463  and  _465
REMARK  186  A    between atoms: _465  and  _466
REMARK  187  A    between atoms: _465  and  _468
REMARK  188  A    between atoms: _468  and  _469
REMARK  189  A    between atoms: _474  and  _476
REMARK  190  A    between atoms: _476  and  _477
REMARK  191  A    between atoms: _476  and  _479
REMARK  192  A    between atoms: _482  and  _484
REMARK  193  A    between atoms: _484  and  _485
REMARK  194  A    between atoms: _484  and  _487
REMARK  195  A    between atoms: _487  and  _488
REMARK  196  A    between atoms: _488  and  _489
REMARK  197  A    between atoms: _494  and  _496
REMARK  198  A    between atoms: _496  and  _497
REMARK  199  A    between atoms: _501  and  _502
REMARK  200  A    between atoms: _507  and  _509
REMARK  201  A    between atoms: _509  and  _510
REMARK  202  A    between atoms: _509  and  _512
REMARK  203  A    between atoms: _512  and  _513
REMARK  204  A    between atoms: _513  and  _514
REMARK  205  A    between atoms: _517  and  _519
REMARK  206  A    between atoms: _519  and  _520
REMARK  207  A    between atoms: _519  and  _522
REMARK  208  A    between atoms: _525  and  _527
REMARK  209  A    between atoms: _527  and  _528
REMARK  210  A    between atoms: _527  and  _530
REMARK  211  A    between atoms: _530  and  _531
REMARK  212  A    between atoms: _535  and  _536
REMARK  213  A    between atoms: _541  and  _543
REMARK  214  A    between atoms: _543  and  _544
REMARK  215  A    between atoms: _543  and  _546
REMARK  216  A    between atoms: _546  and  _547
REMARK  217  A    between atoms: _550  and  _552
REMARK  218  A    between atoms: _552  and  _553
REMARK  219  A    between atoms: _556  and  _558
REMARK  220  A    between atoms: _558  and  _559
REMARK  221  A    between atoms: _558  and  _561
REMARK  222  A    between atoms: _561  and  _562
REMARK  223  A    between atoms: _565  and  _567
REMARK  224  A    between atoms: _567  and  _568
REMARK  225  A    between atoms: _567  and  _570
REMARK  226  A    between atoms: _570  and  _571
REMARK  227  A    between atoms: _573  and  _575
REMARK  228  A    between atoms: _575  and  _576
REMARK  229  A    between atoms: _578  and  _580
REMARK  230  A    between atoms: _580  and  _581
REMARK  231  A    between atoms: _580  and  _583
REMARK  232  A    between atoms: _583  and  _584
REMARK  233  A    between atoms: _587  and  _589
REMARK  234  A    between atoms: _589  and  _590
REMARK  235  A    between atoms: _589  and  _592
REMARK                            x       y       z     vdW  Elec       q    Type
REMARK                         _______ _______ _______ _____ _____    ______ ____
ROOT
ATOM      1  O   HOH     1       6.880 -10.398  19.388  0.00  0.00    +0.000 OA
ENDROOT
TORSDOF 0
REMARK  Name = ../refined-set-2016/4xtz/4xtz_pocket.pdb
REMARK  235 active torsions:
REMARK  status: ('A' for Active; 'I' for Inactive)
REMARK    1  A    between atoms: _1  and  _3
REMARK    2  A    between atoms: _3  and  _4
REMARK    3  A    between atoms: _3  and  _6
REMARK    4  A    between atoms: _6  and  _7
REMARK    5  A    between atoms: _10  and  _12
REMARK    6  A    between atoms: _12  and  _13
REMARK    7  A    between atoms: _15  and  _17
REMARK    8  A    between atoms: _17  and  _18
REMARK    9  A    between atoms: _17  and  _20
REMARK   10  A    between atoms: _20  and  _21
REMARK   11  A    between atoms: _23  and  _25
REMARK   12  A    between atoms: _25  and  _26
REMARK   13  A    between atoms: _25  and  _28
REMARK   14  A    between atoms: _28  and  _29
REMARK   15  A    between atoms: _32  and  _34
REMARK   16  A    between atoms: _34  and  _35
REMARK   17  A    between atoms: _34  and  _37
REMARK   18  A    between atoms: _37  and  _38
REMARK   19  A    between atoms: _43  and  _45
REMARK   20  A    between atoms: _45  and  _46
REMARK   21  A    between atoms: _49  and  _51
REMARK   22  A    between atoms: _51  and  _52
REMARK   23  A    between atoms: _51  and  _54
REMARK   24  A    between atoms: _54  and  _55
REMARK   25  A    between atoms: _58  and  _60
REMARK   26  A    between atoms: _60  and  _61
REMARK   27  A    between atoms: _60  and  _63
REMARK   28  A    between atoms: _63  and  _64
REMARK   29  A    between atoms: _67  and  _69
REMARK   30  A    between atoms: _69  and  _70
REMARK   31  A    between atoms: _69  and  _72
REMARK   32  A    between atoms: _72  and  _73
REMARK   33  A    between atoms: _76  and  _78
REMARK   34  A    between atoms: _78  and  _79
REMARK   35  A    between atoms: _82  and  _84
REMARK   36  A    between atoms: _84  and  _85
REMARK   37  A    between atoms: _84  and  _87
REMARK   38  A    between atoms: _87  and  _88
REMARK   39  A    between atoms: _88  and  _89
REMARK   40  A    between atoms: _94  and  _96
REMARK   41  A    between atoms: _96  and  _97
REMARK   42  A    between atoms: _96  and  _99
REMARK   43  A    between atoms: _99  and  _100
REMARK   44  A    between atoms: _103  and  _105
REMARK   45  A    between atoms: _105  and  _106
REMARK   46  A    between atoms: _109  and  _111
REMARK   47  A    between atoms: _111  and  _112
REMARK   48  A    between atoms: _114  and  _116
REMARK   49  A    between atoms: _116  and  _117
REMARK   50  A    between atoms: _116  and  _119
REMARK   51  A    between atoms: _119  and  _120
REMARK   52  A    between atoms: _120  and  _121
REMARK   53  A    between atoms: _121  and  _122
REMARK   54  A    between atoms: _131  and  _133
REMARK   55  A    between atoms: _133  and  _134
REMARK   56  A    between atoms: _136  and  _138
REMARK   57  A    between atoms: _138  and  _139
REMARK   58  A    between atoms: _138  and  _141
REMARK   59  A    between atoms: _141  and  _142
REMARK   60  A    between atoms: _142  and  _143
REMARK   61  A    between atoms: _143  and  _144
REMARK   62  A    between atoms: _153  and  _155
REMARK   63  A    between atoms: _155  and  _156
REMARK   64  A    between atoms: _155  and  _158
REMARK   65  A    between atoms: _158  and  _159
REMARK   66  A    between atoms: _164  and  _166
REMARK   67  A    between atoms: _166  and  _167
REMARK   68  A    between atoms: _169  and  _171
REMARK   69  A    between atoms: _171  and  _172
REMARK   70  A    between atoms: _171  and  _174
REMARK   71  A    between atoms: _174  and  _175
REMARK   72  A    between atoms: _175  and  _176
REMARK   73  A    between atoms: _176  and  _177
REMARK   74  A    between atoms: _186  and  _188
REMARK   75  A    between atoms: _188  and  _189
REMARK   76  A    between atoms: _191  and  _193
REMARK   77  A    between atoms: _193  and  _194
REMARK   78  A    between atoms: _193  and  _196
REMARK   79  A    between atoms: _196  and  _197
REMARK   80  A    between atoms: _207  and  _209
REMARK   81  A    between atoms: _209  and  _210
REMARK   82  A    between atoms: _213  and  _215
REMARK   83  A    between atoms: _215  and  _216
REMARK   84  A    between atoms: _219  and  _221
REMARK   85  A    between atoms: _221  and  _222
REMARK   86  A    between atoms: _221  and  _224
REMARK   87  A    between atoms: _224  and  _225
REMARK   88  A    between atoms: _228  and  _230
REMARK   89  A    between atoms: _230  and  _231
REMARK   90  A    between atoms: _230  and  _233
REMARK   91  A    between atoms: _233  and  _234
REMARK   92  A    between atoms: _234  and  _235
REMARK   93  A    between atoms: _240  and  _242
REMARK   94  A    between atoms: _242  and  _243
REMARK   95  A    between atoms: _242  and  _245
REMARK   96  A    between atoms: _245  and  _246
REMARK   97  A    between atoms: _249  and  _251
REMARK   98  A    between atoms: _251  and  _252
REMARK   99  A    between atoms: _251  and  _254
REMARK  100  A    between atoms: _254  and  _255
REMARK  101  A    between atoms: _258  and  _260
REMARK  102  A    between atoms: _260  and  _261
REMARK  103  A    between atoms: _260  and  _263
REMARK  104  A    between atoms: _263  and  _264
REMARK  105  A    between atoms: _267  and  _269
REMARK  106  A    between atoms: _269  and  _270
REMARK  107  A    between atoms: _269  and  _272
REMARK  108  A    between atoms: _272  and  _273
REMARK  109  A    between atoms: _275  and  _277
REMARK  110  A    between atoms: _277  and  _278
REMARK  111  A    between atoms: _277  and  _280
REMARK  112  A    between atoms: _283  and  _285
REMARK  113  A    between atoms: _285  and  _286
REMARK  114  A    between atoms: _285  and  _288
REMARK  115  A    between atoms: _288  and  _289
REMARK  116  A    between atoms: _289  and  _290
REMARK  117  A    between atoms: _290  and  _291
REMARK  118  A    between atoms: _291  and  _292
REMARK  119  A    between atoms: _296  and  _298
REMARK  120  A    between atoms: _298  and  _299
REMARK  121  A    between atoms: _298  and  _301
REMARK  122  A    between atoms: _301  and  _302
REMARK  123  A    between atoms: _313  and  _314
REMARK  124  A    between atoms: _319  and  _321
REMARK  125  A    between atoms: _321  and  _322
REMARK  126  A    between atoms: _321  and  _324
REMARK  127  A    between atoms: _324  and  _325
REMARK  128  A    between atoms: _330  and  _332
REMARK  129  A    between atoms: _332  and  _333
REMARK  130  A    between atoms: _332  and  _335
REMARK  131  A    between atoms: _335  and  _336
REMARK  132  A    between atoms: _339  and  _341
REMARK  133  A    between atoms: _341  and  _342
REMARK  134  A    between atoms: _341  and  _344
REMARK  135  A    between atoms: _347  and  _349
REMARK  136  A    between atoms: _349  and  _350
REMARK  137  A    between atoms: _352  and  _354
REMARK  138  A    between atoms: _354  and  _355
REMARK  139  A    between atoms: _354  and  _357
REMARK  140  A    between atoms: _357  and  _358
REMARK  141  A    between atoms: _358  and  _359
REMARK  142  A    between atoms: _359  and  _360
REMARK  143  A    between atoms: _360  and  _361
REMARK  144  A    between atoms: _365  and  _367
REMARK  145  A    between atoms: _367  and  _368
REMARK  146  A    between atoms: _367  and  _370
REMARK  147  A    between atoms: _370  and  _371
REMARK  148  A    between atoms: _374  and  _376
REMARK  149  A    between atoms: _376  and  _377
REMARK  150  A    between atoms: _380  and  _382
REMARK  151  A    between atoms: _382  and  _383
REMARK  152  A    between atoms: _385  and  _387
REMARK  153  A    between atoms: _387  and  _388
REMARK  154  A    between atoms: _387  and  _390
REMARK  155  A    between atoms: _390  and  _391
REMARK  156  A    between atoms: _394  and  _396
REMARK  157  A    between atoms: _396  and  _397
REMARK  158  A    between atoms: _396  and  _399
REMARK  159  A    between atoms: _399  and  _400
REMARK  160  A    between atoms: _403  and  _405
REMARK  161  A    between atoms: _405  and  _406
REMARK  162  A    between atoms: _409  and  _411
REMARK  163  A    between atoms: _411  and  _412
REMARK  164  A    between atoms: _411  and  _414
REMARK  165  A    between atoms: _414  and  _415
REMARK  166  A    between atoms: _415  and  _416
REMARK  167  A    between atoms: _419  and  _421
REMARK  168  A    between atoms: _421  and  _422
REMARK  169  A    between atoms: _421  and  _424
REMARK  170  A    between atoms: _427  and  _429
REMARK  171  A    between atoms: _429  and  _430
REMARK  172  A    between atoms: _429  and  _432
REMARK  173  A    between atoms: _432  and  _433
REMARK  174  A    between atoms: _436  and  _438
REMARK  175  A    between atoms: _438  and  _439
REMARK  176  A    between atoms: _441  and  _443
REMARK  177  A    between atoms: _443  and  _444
REMARK  178  A    between atoms: _443  and  _446
REMARK  179  A    between atoms: _449  and  _451
REMARK  180  A    between atoms: _451  and  _452
REMARK  181  A    between atoms: _454  and  _456
REMARK  182  A    between atoms: _456  and  _457
REMARK  183  A    between atoms: _456  and  _459
REMARK  184  A    between atoms: _459  and  _460
REMARK  185  A    between atoms: _463  and  _465
REMARK  186  A    between atoms: _465  and  _466
REMARK  187  A    between atoms: _465  and  _468
REMARK  188  A    between atoms: _468  and  _469
REMARK  189  A    between atoms: _474  and  _476
REMARK  190  A    between atoms: _476  and  _477
REMARK  191  A    between atoms: _476  and  _479
REMARK  192  A    between atoms: _482  and  _484
REMARK  193  A    between atoms: _484  and  _485
REMARK  194  A    between atoms: _484  and  _487
REMARK  195  A    between atoms: _487  and  _488
REMARK  196  A    between atoms: _488  and  _489
REMARK  197  A    between atoms: _494  and  _496
REMARK  198  A    between atoms: _496  and  _497
REMARK  199  A    between atoms: _501  and  _502
REMARK  200  A    between atoms: _507  and  _509
REMARK  201  A    between atoms: _509  and  _510
REMARK  202  A    between atoms: _509  and  _512
REMARK  203  A    between atoms: _512  and  _513
REMARK  204  A    between atoms: _513  and  _514
REMARK  205  A    between atoms: _517  and  _519
REMARK  206  A    between atoms: _519  and  _520
REMARK  207  A    between atoms: _519  and  _522
REMARK  208  A    between atoms: _525  and  _527
REMARK  209  A    between atoms: _527  and  _528
REMARK  210  A    between atoms: _527  and  _530
REMARK  211  A    between atoms: _530  and  _531
REMARK  212  A    between atoms: _535  and  _536
REMARK  213  A    between atoms: _541  and  _543
REMARK  214  A    between atoms: _543  and  _544
REMARK  215  A    between atoms: _543  and  _546
REMARK  216  A    between atoms: _546  and  _547
REMARK  217  A    between atoms: _550  and  _552
REMARK  218  A    between atoms: _552  and  _553
REMARK  219  A    between atoms: _556  and  _558
REMARK  220  A    between atoms: _558  and  _559
REMARK  221  A    between atoms: _558  and  _561
REMARK  222  A    between atoms: _561  and  _562
REMARK  223  A    between atoms: _565  and  _567
REMARK  224  A    between atoms: _567  and  _568
REMARK  225  A    between atoms: _567  and  _570
REMARK  226  A    between atoms: _570  and  _571
REMARK  227  A    between atoms: _573  and  _575
REMARK  228  A    between atoms: _575  and  _576
REMARK  229  A    between atoms: _578  and  _580
REMARK  230  A    between atoms: _580  and  _581
REMARK  231  A    between atoms: _580  and  _583
REMARK  232  A    between atoms: _583  and  _584
REMARK  233  A    between atoms: _587  and  _589
REMARK  234  A    between atoms: _589  and  _590
REMARK  235  A    between atoms: _589  and  _592
REMARK                            x       y       z     vdW  Elec       q    Type
REMARK                         _______ _______ _______ _____ _____    ______ ____
ROOT
ATOM      1  O   HOH     1      -9.010  -5.519   0.880  0.00  0.00    +0.000 OA
ENDROOT
TORSDOF 0
REMARK  Name = ../refined-set-2016/4xtz/4xtz_pocket.pdb
REMARK  235 active torsions:
REMARK  status: ('A' for Active; 'I' for Inactive)
REMARK    1  A    between atoms: _1  and  _3
REMARK    2  A    between atoms: _3  and  _4
REMARK    3  A    between atoms: _3  and  _6
REMARK    4  A    between atoms: _6  and  _7
REMARK    5  A    between atoms: _10  and  _12
REMARK    6  A    between atoms: _12  and  _13
REMARK    7  A    between atoms: _15  and  _17
REMARK    8  A    between atoms: _17  and  _18
REMARK    9  A    between atoms: _17  and  _20
REMARK   10  A    between atoms: _20  and  _21
REMARK   11  A    between atoms: _23  and  _25
REMARK   12  A    between atoms: _25  and  _26
REMARK   13  A    between atoms: _25  and  _28
REMARK   14  A    between atoms: _28  and  _29
REMARK   15  A    between atoms: _32  and  _34
REMARK   16  A    between atoms: _34  and  _35
REMARK   17  A    between atoms: _34  and  _37
REMARK   18  A    between atoms: _37  and  _38
REMARK   19  A    between atoms: _43  and  _45
REMARK   20  A    between atoms: _45  and  _46
REMARK   21  A    between atoms: _49  and  _51
REMARK   22  A    between atoms: _51  and  _52
REMARK   23  A    between atoms: _51  and  _54
REMARK   24  A    between atoms: _54  and  _55
REMARK   25  A    between atoms: _58  and  _60
REMARK   26  A    between atoms: _60  and  _61
REMARK   27  A    between atoms: _60  and  _63
REMARK   28  A    between atoms: _63  and  _64
REMARK   29  A    between atoms: _67  and  _69
REMARK   30  A    between atoms: _69  and  _70
REMARK   31  A    between atoms: _69  and  _72
REMARK   32  A    between atoms: _72  and  _73
REMARK   33  A    between atoms: _76  and  _78
REMARK   34  A    between atoms: _78  and  _79
REMARK   35  A    between atoms: _82  and  _84
REMARK   36  A    between atoms: _84  and  _85
REMARK   37  A    between atoms: _84  and  _87
REMARK   38  A    between atoms: _87  and  _88
REMARK   39  A    between atoms: _88  and  _89
REMARK   40  A    between atoms: _94  and  _96
REMARK   41  A    between atoms: _96  and  _97
REMARK   42  A    between atoms: _96  and  _99
REMARK   43  A    between atoms: _99  and  _100
REMARK   44  A    between atoms: _103  and  _105
REMARK   45  A    between atoms: _105  and  _106
REMARK   46  A    between atoms: _109  and  _111
REMARK   47  A    between atoms: _111  and  _112
REMARK   48  A    between atoms: _114  and  _116
REMARK   49  A    between atoms: _116  and  _117
REMARK   50  A    between atoms: _116  and  _119
REMARK   51  A    between atoms: _119  and  _120
REMARK   52  A    between atoms: _120  and  _121
REMARK   53  A    between atoms: _121  and  _122
REMARK   54  A    between atoms: _131  and  _133
REMARK   55  A    between atoms: _133  and  _134
REMARK   56  A    between atoms: _136  and  _138
REMARK   57  A    between atoms: _138  and  _139
REMARK   58  A    between atoms: _138  and  _141
REMARK   59  A    between atoms: _141  and  _142
REMARK   60  A    between atoms: _142  and  _143
REMARK   61  A    between atoms: _143  and  _144
REMARK   62  A    between atoms: _153  and  _155
REMARK   63  A    between atoms: _155  and  _156
REMARK   64  A    between atoms: _155  and  _158
REMARK   65  A    between atoms: _158  and  _159
REMARK   66  A    between atoms: _164  and  _166
REMARK   67  A    between atoms: _166  and  _167
REMARK   68  A    between atoms: _169  and  _171
REMARK   69  A    between atoms: _171  and  _172
REMARK   70  A    between atoms: _171  and  _174
REMARK   71  A    between atoms: _174  and  _175
REMARK   72  A    between atoms: _175  and  _176
REMARK   73  A    between atoms: _176  and  _177
REMARK   74  A    between atoms: _186  and  _188
REMARK   75  A    between atoms: _188  and  _189
REMARK   76  A    between atoms: _191  and  _193
REMARK   77  A    between atoms: _193  and  _194
REMARK   78  A    between atoms: _193  and  _196
REMARK   79  A    between atoms: _196  and  _197
REMARK   80  A    between atoms: _207  and  _209
REMARK   81  A    between atoms: _209  and  _210
REMARK   82  A    between atoms: _213  and  _215
REMARK   83  A    between atoms: _215  and  _216
REMARK   84  A    between atoms: _219  and  _221
REMARK   85  A    between atoms: _221  and  _222
REMARK   86  A    between atoms: _221  and  _224
REMARK   87  A    between atoms: _224  and  _225
REMARK   88  A    between atoms: _228  and  _230
REMARK   89  A    between atoms: _230  and  _231
REMARK   90  A    between atoms: _230  and  _233
REMARK   91  A    between atoms: _233  and  _234
REMARK   92  A    between atoms: _234  and  _235
REMARK   93  A    between atoms: _240  and  _242
REMARK   94  A    between atoms: _242  and  _243
REMARK   95  A    between atoms: _242  and  _245
REMARK   96  A    between atoms: _245  and  _246
REMARK   97  A    between atoms: _249  and  _251
REMARK   98  A    between atoms: _251  and  _252
REMARK   99  A    between atoms: _251  and  _254
REMARK  100  A    between atoms: _254  and  _255
REMARK  101  A    between atoms: _258  and  _260
REMARK  102  A    between atoms: _260  and  _261
REMARK  103  A    between atoms: _260  and  _263
REMARK  104  A    between atoms: _263  and  _264
REMARK  105  A    between atoms: _267  and  _269
REMARK  106  A    between atoms: _269  and  _270
REMARK  107  A    between atoms: _269  and  _272
REMARK  108  A    between atoms: _272  and  _273
REMARK  109  A    between atoms: _275  and  _277
REMARK  110  A    between atoms: _277  and  _278
REMARK  111  A    between atoms: _277  and  _280
REMARK  112  A    between atoms: _283  and  _285
REMARK  113  A    between atoms: _285  and  _286
REMARK  114  A    between atoms: _285  and  _288
REMARK  115  A    between atoms: _288  and  _289
REMARK  116  A    between atoms: _289  and  _290
REMARK  117  A    between atoms: _290  and  _291
REMARK  118  A    between atoms: _291  and  _292
REMARK  119  A    between atoms: _296  and  _298
REMARK  120  A    between atoms: _298  and  _299
REMARK  121  A    between atoms: _298  and  _301
REMARK  122  A    between atoms: _301  and  _302
REMARK  123  A    between atoms: _313  and  _314
REMARK  124  A    between atoms: _319  and  _321
REMARK  125  A    between atoms: _321  and  _322
REMARK  126  A    between atoms: _321  and  _324
REMARK  127  A    between atoms: _324  and  _325
REMARK  128  A    between atoms: _330  and  _332
REMARK  129  A    between atoms: _332  and  _333
REMARK  130  A    between atoms: _332  and  _335
REMARK  131  A    between atoms: _335  and  _336
REMARK  132  A    between atoms: _339  and  _341
REMARK  133  A    between atoms: _341  and  _342
REMARK  134  A    between atoms: _341  and  _344
REMARK  135  A    between atoms: _347  and  _349
REMARK  136  A    between atoms: _349  and  _350
REMARK  137  A    between atoms: _352  and  _354
REMARK  138  A    between atoms: _354  and  _355
REMARK  139  A    between atoms: _354  and  _357
REMARK  140  A    between atoms: _357  and  _358
REMARK  141  A    between atoms: _358  and  _359
REMARK  142  A    between atoms: _359  and  _360
REMARK  143  A    between atoms: _360  and  _361
REMARK  144  A    between atoms: _365  and  _367
REMARK  145  A    between atoms: _367  and  _368
REMARK  146  A    between atoms: _367  and  _370
REMARK  147  A    between atoms: _370  and  _371
REMARK  148  A    between atoms: _374  and  _376
REMARK  149  A    between atoms: _376  and  _377
REMARK  150  A    between atoms: _380  and  _382
REMARK  151  A    between atoms: _382  and  _383
REMARK  152  A    between atoms: _385  and  _387
REMARK  153  A    between atoms: _387  and  _388
REMARK  154  A    between atoms: _387  and  _390
REMARK  155  A    between atoms: _390  and  _391
REMARK  156  A    between atoms: _394  and  _396
REMARK  157  A    between atoms: _396  and  _397
REMARK  158  A    between atoms: _396  and  _399
REMARK  159  A    between atoms: _399  and  _400
REMARK  160  A    between atoms: _403  and  _405
REMARK  161  A    between atoms: _405  and  _406
REMARK  162  A    between atoms: _409  and  _411
REMARK  163  A    between atoms: _411  and  _412
REMARK  164  A    between atoms: _411  and  _414
REMARK  165  A    between atoms: _414  and  _415
REMARK  166  A    between atoms: _415  and  _416
REMARK  167  A    between atoms: _419  and  _421
REMARK  168  A    between atoms: _421  and  _422
REMARK  169  A    between atoms: _421  and  _424
REMARK  170  A    between atoms: _427  and  _429
REMARK  171  A    between atoms: _429  and  _430
REMARK  172  A    between atoms: _429  and  _432
REMARK  173  A    between atoms: _432  and  _433
REMARK  174  A    between atoms: _436  and  _438
REMARK  175  A    between atoms: _438  and  _439
REMARK  176  A    between atoms: _441  and  _443
REMARK  177  A    between atoms: _443  and  _444
REMARK  178  A    between atoms: _443  and  _446
REMARK  179  A    between atoms: _449  and  _451
REMARK  180  A    between atoms: _451  and  _452
REMARK  181  A    between atoms: _454  and  _456
REMARK  182  A    between atoms: _456  and  _457
REMARK  183  A    between atoms: _456  and  _459
REMARK  184  A    between atoms: _459  and  _460
REMARK  185  A    between atoms: _463  and  _465
REMARK  186  A    between atoms: _465  and  _466
REMARK  187  A    between atoms: _465  and  _468
REMARK  188  A    between atoms: _468  and  _469
REMARK  189  A    between atoms: _474  and  _476
REMARK  190  A    between atoms: _476  and  _477
REMARK  191  A    between atoms: _476  and  _479
REMARK  192  A    between atoms: _482  and  _484
REMARK  193  A    between atoms: _484  and  _485
REMARK  194  A    between atoms: _484  and  _487
REMARK  195  A    between atoms: _487  and  _488
REMARK  196  A    between atoms: _488  and  _489
REMARK  197  A    between atoms: _494  and  _496
REMARK  198  A    between atoms: _496  and  _497
REMARK  199  A    between atoms: _501  and  _502
REMARK  200  A    between atoms: _507  and  _509
REMARK  201  A    between atoms: _509  and  _510
REMARK  202  A    between atoms: _509  and  _512
REMARK  203  A    between atoms: _512  and  _513
REMARK  204  A    between atoms: _513  and  _514
REMARK  205  A    between atoms: _517  and  _519
REMARK  206  A    between atoms: _519  and  _520
REMARK  207  A    between atoms: _519  and  _522
REMARK  208  A    between atoms: _525  and  _527
REMARK  209  A    between atoms: _527  and  _528
REMARK  210  A    between atoms: _527  and  _530
REMARK  211  A    between atoms: _530  and  _531
REMARK  212  A    between atoms: _535  and  _536
REMARK  213  A    between atoms: _541  and  _543
REMARK  214  A    between atoms: _543  and  _544
REMARK  215  A    between atoms: _543  and  _546
REMARK  216  A    between atoms: _546  and  _547
REMARK  217  A    between atoms: _550  and  _552
REMARK  218  A    between atoms: _552  and  _553
REMARK  219  A    between atoms: _556  and  _558
REMARK  220  A    between atoms: _558  and  _559
REMARK  221  A    between atoms: _558  and  _561
REMARK  222  A    between atoms: _561  and  _562
REMARK  223  A    between atoms: _565  and  _567
REMARK  224  A    between atoms: _567  and  _568
REMARK  225  A    between atoms: _567  and  _570
REMARK  226  A    between atoms: _570  and  _571
REMARK  227  A    between atoms: _573  and  _575
REMARK  228  A    between atoms: _575  and  _576
REMARK  229  A    between atoms: _578  and  _580
REMARK  230  A    between atoms: _580  and  _581
REMARK  231  A    between atoms: _580  and  _583
REMARK  232  A    between atoms: _583  and  _584
REMARK  233  A    between atoms: _587  and  _589
REMARK  234  A    between atoms: _589  and  _590
REMARK  235  A    between atoms: _589  and  _592
REMARK                            x       y       z     vdW  Elec       q    Type
REMARK                         _______ _______ _______ _____ _____    ______ ____
ROOT
ATOM      1  O   HOH     1      -8.412   0.830   8.891  0.00  0.00    +0.000 OA
ENDROOT
TORSDOF 0
REMARK  Name = ../refined-set-2016/4xtz/4xtz_pocket.pdb
REMARK  235 active torsions:
REMARK  status: ('A' for Active; 'I' for Inactive)
REMARK    1  A    between atoms: _1  and  _3
REMARK    2  A    between atoms: _3  and  _4
REMARK    3  A    between atoms: _3  and  _6
REMARK    4  A    between atoms: _6  and  _7
REMARK    5  A    between atoms: _10  and  _12
REMARK    6  A    between atoms: _12  and  _13
REMARK    7  A    between atoms: _15  and  _17
REMARK    8  A    between atoms: _17  and  _18
REMARK    9  A    between atoms: _17  and  _20
REMARK   10  A    between atoms: _20  and  _21
REMARK   11  A    between atoms: _23  and  _25
REMARK   12  A    between atoms: _25  and  _26
REMARK   13  A    between atoms: _25  and  _28
REMARK   14  A    between atoms: _28  and  _29
REMARK   15  A    between atoms: _32  and  _34
REMARK   16  A    between atoms: _34  and  _35
REMARK   17  A    between atoms: _34  and  _37
REMARK   18  A    between atoms: _37  and  _38
REMARK   19  A    between atoms: _43  and  _45
REMARK   20  A    between atoms: _45  and  _46
REMARK   21  A    between atoms: _49  and  _51
REMARK   22  A    between atoms: _51  and  _52
REMARK   23  A    between atoms: _51  and  _54
REMARK   24  A    between atoms: _54  and  _55
REMARK   25  A    between atoms: _58  and  _60
REMARK   26  A    between atoms: _60  and  _61
REMARK   27  A    between atoms: _60  and  _63
REMARK   28  A    between atoms: _63  and  _64
REMARK   29  A    between atoms: _67  and  _69
REMARK   30  A    between atoms: _69  and  _70
REMARK   31  A    between atoms: _69  and  _72
REMARK   32  A    between atoms: _72  and  _73
REMARK   33  A    between atoms: _76  and  _78
REMARK   34  A    between atoms: _78  and  _79
REMARK   35  A    between atoms: _82  and  _84
REMARK   36  A    between atoms: _84  and  _85
REMARK   37  A    between atoms: _84  and  _87
REMARK   38  A    between atoms: _87  and  _88
REMARK   39  A    between atoms: _88  and  _89
REMARK   40  A    between atoms: _94  and  _96
REMARK   41  A    between atoms: _96  and  _97
REMARK   42  A    between atoms: _96  and  _99
REMARK   43  A    between atoms: _99  and  _100
REMARK   44  A    between atoms: _103  and  _105
REMARK   45  A    between atoms: _105  and  _106
REMARK   46  A    between atoms: _109  and  _111
REMARK   47  A    between atoms: _111  and  _112
REMARK   48  A    between atoms: _114  and  _116
REMARK   49  A    between atoms: _116  and  _117
REMARK   50  A    between atoms: _116  and  _119
REMARK   51  A    between atoms: _119  and  _120
REMARK   52  A    between atoms: _120  and  _121
REMARK   53  A    between atoms: _121  and  _122
REMARK   54  A    between atoms: _131  and  _133
REMARK   55  A    between atoms: _133  and  _134
REMARK   56  A    between atoms: _136  and  _138
REMARK   57  A    between atoms: _138  and  _139
REMARK   58  A    between atoms: _138  and  _141
REMARK   59  A    between atoms: _141  and  _142
REMARK   60  A    between atoms: _142  and  _143
REMARK   61  A    between atoms: _143  and  _144
REMARK   62  A    between atoms: _153  and  _155
REMARK   63  A    between atoms: _155  and  _156
REMARK   64  A    between atoms: _155  and  _158
REMARK   65  A    between atoms: _158  and  _159
REMARK   66  A    between atoms: _164  and  _166
REMARK   67  A    between atoms: _166  and  _167
REMARK   68  A    between atoms: _169  and  _171
REMARK   69  A    between atoms: _171  and  _172
REMARK   70  A    between atoms: _171  and  _174
REMARK   71  A    between atoms: _174  and  _175
REMARK   72  A    between atoms: _175  and  _176
REMARK   73  A    between atoms: _176  and  _177
REMARK   74  A    between atoms: _186  and  _188
REMARK   75  A    between atoms: _188  and  _189
REMARK   76  A    between atoms: _191  and  _193
REMARK   77  A    between atoms: _193  and  _194
REMARK   78  A    between atoms: _193  and  _196
REMARK   79  A    between atoms: _196  and  _197
REMARK   80  A    between atoms: _207  and  _209
REMARK   81  A    between atoms: _209  and  _210
REMARK   82  A    between atoms: _213  and  _215
REMARK   83  A    between atoms: _215  and  _216
REMARK   84  A    between atoms: _219  and  _221
REMARK   85  A    between atoms: _221  and  _222
REMARK   86  A    between atoms: _221  and  _224
REMARK   87  A    between atoms: _224  and  _225
REMARK   88  A    between atoms: _228  and  _230
REMARK   89  A    between atoms: _230  and  _231
REMARK   90  A    between atoms: _230  and  _233
REMARK   91  A    between atoms: _233  and  _234
REMARK   92  A    between atoms: _234  and  _235
REMARK   93  A    between atoms: _240  and  _242
REMARK   94  A    between atoms: _242  and  _243
REMARK   95  A    between atoms: _242  and  _245
REMARK   96  A    between atoms: _245  and  _246
REMARK   97  A    between atoms: _249  and  _251
REMARK   98  A    between atoms: _251  and  _252
REMARK   99  A    between atoms: _251  and  _254
REMARK  100  A    between atoms: _254  and  _255
REMARK  101  A    between atoms: _258  and  _260
REMARK  102  A    between atoms: _260  and  _261
REMARK  103  A    between atoms: _260  and  _263
REMARK  104  A    between atoms: _263  and  _264
REMARK  105  A    between atoms: _267  and  _269
REMARK  106  A    between atoms: _269  and  _270
REMARK  107  A    between atoms: _269  and  _272
REMARK  108  A    between atoms: _272  and  _273
REMARK  109  A    between atoms: _275  and  _277
REMARK  110  A    between atoms: _277  and  _278
REMARK  111  A    between atoms: _277  and  _280
REMARK  112  A    between atoms: _283  and  _285
REMARK  113  A    between atoms: _285  and  _286
REMARK  114  A    between atoms: _285  and  _288
REMARK  115  A    between atoms: _288  and  _289
REMARK  116  A    between atoms: _289  and  _290
REMARK  117  A    between atoms: _290  and  _291
REMARK  118  A    between atoms: _291  and  _292
REMARK  119  A    between atoms: _296  and  _298
REMARK  120  A    between atoms: _298  and  _299
REMARK  121  A    between atoms: _298  and  _301
REMARK  122  A    between atoms: _301  and  _302
REMARK  123  A    between atoms: _313  and  _314
REMARK  124  A    between atoms: _319  and  _321
REMARK  125  A    between atoms: _321  and  _322
REMARK  126  A    between atoms: _321  and  _324
REMARK  127  A    between atoms: _324  and  _325
REMARK  128  A    between atoms: _330  and  _332
REMARK  129  A    between atoms: _332  and  _333
REMARK  130  A    between atoms: _332  and  _335
REMARK  131  A    between atoms: _335  and  _336
REMARK  132  A    between atoms: _339  and  _341
REMARK  133  A    between atoms: _341  and  _342
REMARK  134  A    between atoms: _341  and  _344
REMARK  135  A    between atoms: _347  and  _349
REMARK  136  A    between atoms: _349  and  _350
REMARK  137  A    between atoms: _352  and  _354
REMARK  138  A    between atoms: _354  and  _355
REMARK  139  A    between atoms: _354  and  _357
REMARK  140  A    between atoms: _357  and  _358
REMARK  141  A    between atoms: _358  and  _359
REMARK  142  A    between atoms: _359  and  _360
REMARK  143  A    between atoms: _360  and  _361
REMARK  144  A    between atoms: _365  and  _367
REMARK  145  A    between atoms: _367  and  _368
REMARK  146  A    between atoms: _367  and  _370
REMARK  147  A    between atoms: _370  and  _371
REMARK  148  A    between atoms: _374  and  _376
REMARK  149  A    between atoms: _376  and  _377
REMARK  150  A    between atoms: _380  and  _382
REMARK  151  A    between atoms: _382  and  _383
REMARK  152  A    between atoms: _385  and  _387
REMARK  153  A    between atoms: _387  and  _388
REMARK  154  A    between atoms: _387  and  _390
REMARK  155  A    between atoms: _390  and  _391
REMARK  156  A    between atoms: _394  and  _396
REMARK  157  A    between atoms: _396  and  _397
REMARK  158  A    between atoms: _396  and  _399
REMARK  159  A    between atoms: _399  and  _400
REMARK  160  A    between atoms: _403  and  _405
REMARK  161  A    between atoms: _405  and  _406
REMARK  162  A    between atoms: _409  and  _411
REMARK  163  A    between atoms: _411  and  _412
REMARK  164  A    between atoms: _411  and  _414
REMARK  165  A    between atoms: _414  and  _415
REMARK  166  A    between atoms: _415  and  _416
REMARK  167  A    between atoms: _419  and  _421
REMARK  168  A    between atoms: _421  and  _422
REMARK  169  A    between atoms: _421  and  _424
REMARK  170  A    between atoms: _427  and  _429
REMARK  171  A    between atoms: _429  and  _430
REMARK  172  A    between atoms: _429  and  _432
REMARK  173  A    between atoms: _432  and  _433
REMARK  174  A    between atoms: _436  and  _438
REMARK  175  A    between atoms: _438  and  _439
REMARK  176  A    between atoms: _441  and  _443
REMARK  177  A    between atoms: _443  and  _444
REMARK  178  A    between atoms: _443  and  _446
REMARK  179  A    between atoms: _449  and  _451
REMARK  180  A    between atoms: _451  and  _452
REMARK  181  A    between atoms: _454  and  _456
REMARK  182  A    between atoms: _456  and  _457
REMARK  183  A    between atoms: _456  and  _459
REMARK  184  A    between atoms: _459  and  _460
REMARK  185  A    between atoms: _463  and  _465
REMARK  186  A    between atoms: _465  and  _466
REMARK  187  A    between atoms: _465  and  _468
REMARK  188  A    between atoms: _468  and  _469
REMARK  189  A    between atoms: _474  and  _476
REMARK  190  A    between atoms: _476  and  _477
REMARK  191  A    between atoms: _476  and  _479
REMARK  192  A    between atoms: _482  and  _484
REMARK  193  A    between atoms: _484  and  _485
REMARK  194  A    between atoms: _484  and  _487
REMARK  195  A    between atoms: _487  and  _488
REMARK  196  A    between atoms: _488  and  _489
REMARK  197  A    between atoms: _494  and  _496
REMARK  198  A    between atoms: _496  and  _497
REMARK  199  A    between atoms: _501  and  _502
REMARK  200  A    between atoms: _507  and  _509
REMARK  201  A    between atoms: _509  and  _510
REMARK  202  A    between atoms: _509  and  _512
REMARK  203  A    between atoms: _512  and  _513
REMARK  204  A    between atoms: _513  and  _514
REMARK  205  A    between atoms: _517  and  _519
REMARK  206  A    between atoms: _519  and  _520
REMARK  207  A    between atoms: _519  and  _522
REMARK  208  A    between atoms: _525  and  _527
REMARK  209  A    between atoms: _527  and  _528
REMARK  210  A    between atoms: _527  and  _530
REMARK  211  A    between atoms: _530  and  _531
REMARK  212  A    between atoms: _535  and  _536
REMARK  213  A    between atoms: _541  and  _543
REMARK  214  A    between atoms: _543  and  _544
REMARK  215  A    between atoms: _543  and  _546
REMARK  216  A    between atoms: _546  and  _547
REMARK  217  A    between atoms: _550  and  _552
REMARK  218  A    between atoms: _552  and  _553
REMARK  219  A    between atoms: _556  and  _558
REMARK  220  A    between atoms: _558  and  _559
REMARK  221  A    between atoms: _558  and  _561
REMARK  222  A    between atoms: _561  and  _562
REMARK  223  A    between atoms: _565  and  _567
REMARK  224  A    between atoms: _567  and  _568
REMARK  225  A    between atoms: _567  and  _570
REMARK  226  A    between atoms: _570  and  _571
REMARK  227  A    between atoms: _573  and  _575
REMARK  228  A    between atoms: _575  and  _576
REMARK  229  A    between atoms: _578  and  _580
REMARK  230  A    between atoms: _580  and  _581
REMARK  231  A    between atoms: _580  and  _583
REMARK  232  A    between atoms: _583  and  _584
REMARK  233  A    between atoms: _587  and  _589
REMARK  234  A    between atoms: _589  and  _590
REMARK  235  A    between atoms: _589  and  _592
REMARK                            x       y       z     vdW  Elec       q    Type
REMARK                         _______ _______ _______ _____ _____    ______ ____
ROOT
ATOM      1  O   HOH     1      -1.553   2.867  12.288  0.00  0.00    +0.000 OA
ENDROOT
TORSDOF 0
REMARK  Name = ../refined-set-2016/4xtz/4xtz_pocket.pdb
REMARK  235 active torsions:
REMARK  status: ('A' for Active; 'I' for Inactive)
REMARK    1  A    between atoms: _1  and  _3
REMARK    2  A    between atoms: _3  and  _4
REMARK    3  A    between atoms: _3  and  _6
REMARK    4  A    between atoms: _6  and  _7
REMARK    5  A    between atoms: _10  and  _12
REMARK    6  A    between atoms: _12  and  _13
REMARK    7  A    between atoms: _15  and  _17
REMARK    8  A    between atoms: _17  and  _18
REMARK    9  A    between atoms: _17  and  _20
REMARK   10  A    between atoms: _20  and  _21
REMARK   11  A    between atoms: _23  and  _25
REMARK   12  A    between atoms: _25  and  _26
REMARK   13  A    between atoms: _25  and  _28
REMARK   14  A    between atoms: _28  and  _29
REMARK   15  A    between atoms: _32  and  _34
REMARK   16  A    between atoms: _34  and  _35
REMARK   17  A    between atoms: _34  and  _37
REMARK   18  A    between atoms: _37  and  _38
REMARK   19  A    between atoms: _43  and  _45
REMARK   20  A    between atoms: _45  and  _46
REMARK   21  A    between atoms: _49  and  _51
REMARK   22  A    between atoms: _51  and  _52
REMARK   23  A    between atoms: _51  and  _54
REMARK   24  A    between atoms: _54  and  _55
REMARK   25  A    between atoms: _58  and  _60
REMARK   26  A    between atoms: _60  and  _61
REMARK   27  A    between atoms: _60  and  _63
REMARK   28  A    between atoms: _63  and  _64
REMARK   29  A    between atoms: _67  and  _69
REMARK   30  A    between atoms: _69  and  _70
REMARK   31  A    between atoms: _69  and  _72
REMARK   32  A    between atoms: _72  and  _73
REMARK   33  A    between atoms: _76  and  _78
REMARK   34  A    between atoms: _78  and  _79
REMARK   35  A    between atoms: _82  and  _84
REMARK   36  A    between atoms: _84  and  _85
REMARK   37  A    between atoms: _84  and  _87
REMARK   38  A    between atoms: _87  and  _88
REMARK   39  A    between atoms: _88  and  _89
REMARK   40  A    between atoms: _94  and  _96
REMARK   41  A    between atoms: _96  and  _97
REMARK   42  A    between atoms: _96  and  _99
REMARK   43  A    between atoms: _99  and  _100
REMARK   44  A    between atoms: _103  and  _105
REMARK   45  A    between atoms: _105  and  _106
REMARK   46  A    between atoms: _109  and  _111
REMARK   47  A    between atoms: _111  and  _112
REMARK   48  A    between atoms: _114  and  _116
REMARK   49  A    between atoms: _116  and  _117
REMARK   50  A    between atoms: _116  and  _119
REMARK   51  A    between atoms: _119  and  _120
REMARK   52  A    between atoms: _120  and  _121
REMARK   53  A    between atoms: _121  and  _122
REMARK   54  A    between atoms: _131  and  _133
REMARK   55  A    between atoms: _133  and  _134
REMARK   56  A    between atoms: _136  and  _138
REMARK   57  A    between atoms: _138  and  _139
REMARK   58  A    between atoms: _138  and  _141
REMARK   59  A    between atoms: _141  and  _142
REMARK   60  A    between atoms: _142  and  _143
REMARK   61  A    between atoms: _143  and  _144
REMARK   62  A    between atoms: _153  and  _155
REMARK   63  A    between atoms: _155  and  _156
REMARK   64  A    between atoms: _155  and  _158
REMARK   65  A    between atoms: _158  and  _159
REMARK   66  A    between atoms: _164  and  _166
REMARK   67  A    between atoms: _166  and  _167
REMARK   68  A    between atoms: _169  and  _171
REMARK   69  A    between atoms: _171  and  _172
REMARK   70  A    between atoms: _171  and  _174
REMARK   71  A    between atoms: _174  and  _175
REMARK   72  A    between atoms: _175  and  _176
REMARK   73  A    between atoms: _176  and  _177
REMARK   74  A    between atoms: _186  and  _188
REMARK   75  A    between atoms: _188  and  _189
REMARK   76  A    between atoms: _191  and  _193
REMARK   77  A    between atoms: _193  and  _194
REMARK   78  A    between atoms: _193  and  _196
REMARK   79  A    between atoms: _196  and  _197
REMARK   80  A    between atoms: _207  and  _209
REMARK   81  A    between atoms: _209  and  _210
REMARK   82  A    between atoms: _213  and  _215
REMARK   83  A    between atoms: _215  and  _216
REMARK   84  A    between atoms: _219  and  _221
REMARK   85  A    between atoms: _221  and  _222
REMARK   86  A    between atoms: _221  and  _224
REMARK   87  A    between atoms: _224  and  _225
REMARK   88  A    between atoms: _228  and  _230
REMARK   89  A    between atoms: _230  and  _231
REMARK   90  A    between atoms: _230  and  _233
REMARK   91  A    between atoms: _233  and  _234
REMARK   92  A    between atoms: _234  and  _235
REMARK   93  A    between atoms: _240  and  _242
REMARK   94  A    between atoms: _242  and  _243
REMARK   95  A    between atoms: _242  and  _245
REMARK   96  A    between atoms: _245  and  _246
REMARK   97  A    between atoms: _249  and  _251
REMARK   98  A    between atoms: _251  and  _252
REMARK   99  A    between atoms: _251  and  _254
REMARK  100  A    between atoms: _254  and  _255
REMARK  101  A    between atoms: _258  and  _260
REMARK  102  A    between atoms: _260  and  _261
REMARK  103  A    between atoms: _260  and  _263
REMARK  104  A    between atoms: _263  and  _264
REMARK  105  A    between atoms: _267  and  _269
REMARK  106  A    between atoms: _269  and  _270
REMARK  107  A    between atoms: _269  and  _272
REMARK  108  A    between atoms: _272  and  _273
REMARK  109  A    between atoms: _275  and  _277
REMARK  110  A    between atoms: _277  and  _278
REMARK  111  A    between atoms: _277  and  _280
REMARK  112  A    between atoms: _283  and  _285
REMARK  113  A    between atoms: _285  and  _286
REMARK  114  A    between atoms: _285  and  _288
REMARK  115  A    between atoms: _288  and  _289
REMARK  116  A    between atoms: _289  and  _290
REMARK  117  A    between atoms: _290  and  _291
REMARK  118  A    between atoms: _291  and  _292
REMARK  119  A    between atoms: _296  and  _298
REMARK  120  A    between atoms: _298  and  _299
REMARK  121  A    between atoms: _298  and  _301
REMARK  122  A    between atoms: _301  and  _302
REMARK  123  A    between atoms: _313  and  _314
REMARK  124  A    between atoms: _319  and  _321
REMARK  125  A    between atoms: _321  and  _322
REMARK  126  A    between atoms: _321  and  _324
REMARK  127  A    between atoms: _324  and  _325
REMARK  128  A    between atoms: _330  and  _332
REMARK  129  A    between atoms: _332  and  _333
REMARK  130  A    between atoms: _332  and  _335
REMARK  131  A    between atoms: _335  and  _336
REMARK  132  A    between atoms: _339  and  _341
REMARK  133  A    between atoms: _341  and  _342
REMARK  134  A    between atoms: _341  and  _344
REMARK  135  A    between atoms: _347  and  _349
REMARK  136  A    between atoms: _349  and  _350
REMARK  137  A    between atoms: _352  and  _354
REMARK  138  A    between atoms: _354  and  _355
REMARK  139  A    between atoms: _354  and  _357
REMARK  140  A    between atoms: _357  and  _358
REMARK  141  A    between atoms: _358  and  _359
REMARK  142  A    between atoms: _359  and  _360
REMARK  143  A    between atoms: _360  and  _361
REMARK  144  A    between atoms: _365  and  _367
REMARK  145  A    between atoms: _367  and  _368
REMARK  146  A    between atoms: _367  and  _370
REMARK  147  A    between atoms: _370  and  _371
REMARK  148  A    between atoms: _374  and  _376
REMARK  149  A    between atoms: _376  and  _377
REMARK  150  A    between atoms: _380  and  _382
REMARK  151  A    between atoms: _382  and  _383
REMARK  152  A    between atoms: _385  and  _387
REMARK  153  A    between atoms: _387  and  _388
REMARK  154  A    between atoms: _387  and  _390
REMARK  155  A    between atoms: _390  and  _391
REMARK  156  A    between atoms: _394  and  _396
REMARK  157  A    between atoms: _396  and  _397
REMARK  158  A    between atoms: _396  and  _399
REMARK  159  A    between atoms: _399  and  _400
REMARK  160  A    between atoms: _403  and  _405
REMARK  161  A    between atoms: _405  and  _406
REMARK  162  A    between atoms: _409  and  _411
REMARK  163  A    between atoms: _411  and  _412
REMARK  164  A    between atoms: _411  and  _414
REMARK  165  A    between atoms: _414  and  _415
REMARK  166  A    between atoms: _415  and  _416
REMARK  167  A    between atoms: _419  and  _421
REMARK  168  A    between atoms: _421  and  _422
REMARK  169  A    between atoms: _421  and  _424
REMARK  170  A    between atoms: _427  and  _429
REMARK  171  A    between atoms: _429  and  _430
REMARK  172  A    between atoms: _429  and  _432
REMARK  173  A    between atoms: _432  and  _433
REMARK  174  A    between atoms: _436  and  _438
REMARK  175  A    between atoms: _438  and  _439
REMARK  176  A    between atoms: _441  and  _443
REMARK  177  A    between atoms: _443  and  _444
REMARK  178  A    between atoms: _443  and  _446
REMARK  179  A    between atoms: _449  and  _451
REMARK  180  A    between atoms: _451  and  _452
REMARK  181  A    between atoms: _454  and  _456
REMARK  182  A    between atoms: _456  and  _457
REMARK  183  A    between atoms: _456  and  _459
REMARK  184  A    between atoms: _459  and  _460
REMARK  185  A    between atoms: _463  and  _465
REMARK  186  A    between atoms: _465  and  _466
REMARK  187  A    between atoms: _465  and  _468
REMARK  188  A    between atoms: _468  and  _469
REMARK  189  A    between atoms: _474  and  _476
REMARK  190  A    between atoms: _476  and  _477
REMARK  191  A    between atoms: _476  and  _479
REMARK  192  A    between atoms: _482  and  _484
REMARK  193  A    between atoms: _484  and  _485
REMARK  194  A    between atoms: _484  and  _487
REMARK  195  A    between atoms: _487  and  _488
REMARK  196  A    between atoms: _488  and  _489
REMARK  197  A    between atoms: _494  and  _496
REMARK  198  A    between atoms: _496  and  _497
REMARK  199  A    between atoms: _501  and  _502
REMARK  200  A    between atoms: _507  and  _509
REMARK  201  A    between atoms: _509  and  _510
REMARK  202  A    between atoms: _509  and  _512
REMARK  203  A    between atoms: _512  and  _513
REMARK  204  A    between atoms: _513  and  _514
REMARK  205  A    between atoms: _517  and  _519
REMARK  206  A    between atoms: _519  and  _520
REMARK  207  A    between atoms: _519  and  _522
REMARK  208  A    between atoms: _525  and  _527
REMARK  209  A    between atoms: _527  and  _528
REMARK  210  A    between atoms: _527  and  _530
REMARK  211  A    between atoms: _530  and  _531
REMARK  212  A    between atoms: _535  and  _536
REMARK  213  A    between atoms: _541  and  _543
REMARK  214  A    between atoms: _543  and  _544
REMARK  215  A    between atoms: _543  and  _546
REMARK  216  A    between atoms: _546  and  _547
REMARK  217  A    between atoms: _550  and  _552
REMARK  218  A    between atoms: _552  and  _553
REMARK  219  A    between atoms: _556  and  _558
REMARK  220  A    between atoms: _558  and  _559
REMARK  221  A    between atoms: _558  and  _561
REMARK  222  A    between atoms: _561  and  _562
REMARK  223  A    between atoms: _565  and  _567
REMARK  224  A    between atoms: _567  and  _568
REMARK  225  A    between atoms: _567  and  _570
REMARK  226  A    between atoms: _570  and  _571
REMARK  227  A    between atoms: _573  and  _575
REMARK  228  A    between atoms: _575  and  _576
REMARK  229  A    between atoms: _578  and  _580
REMARK  230  A    between atoms: _580  and  _581
REMARK  231  A    between atoms: _580  and  _583
REMARK  232  A    between atoms: _583  and  _584
REMARK  233  A    between atoms: _587  and  _589
REMARK  234  A    between atoms: _589  and  _590
REMARK  235  A    between atoms: _589  and  _592
REMARK                            x       y       z     vdW  Elec       q    Type
REMARK                         _______ _______ _______ _____ _____    ______ ____
ROOT
ATOM      1  O   HOH     1      -5.514 -12.734   5.722  0.00  0.00    +0.000 OA
ENDROOT
TORSDOF 0
REMARK  Name = ../refined-set-2016/4xtz/4xtz_pocket.pdb
REMARK  235 active torsions:
REMARK  status: ('A' for Active; 'I' for Inactive)
REMARK    1  A    between atoms: _1  and  _3
REMARK    2  A    between atoms: _3  and  _4
REMARK    3  A    between atoms: _3  and  _6
REMARK    4  A    between atoms: _6  and  _7
REMARK    5  A    between atoms: _10  and  _12
REMARK    6  A    between atoms: _12  and  _13
REMARK    7  A    between atoms: _15  and  _17
REMARK    8  A    between atoms: _17  and  _18
REMARK    9  A    between atoms: _17  and  _20
REMARK   10  A    between atoms: _20  and  _21
REMARK   11  A    between atoms: _23  and  _25
REMARK   12  A    between atoms: _25  and  _26
REMARK   13  A    between atoms: _25  and  _28
REMARK   14  A    between atoms: _28  and  _29
REMARK   15  A    between atoms: _32  and  _34
REMARK   16  A    between atoms: _34  and  _35
REMARK   17  A    between atoms: _34  and  _37
REMARK   18  A    between atoms: _37  and  _38
REMARK   19  A    between atoms: _43  and  _45
REMARK   20  A    between atoms: _45  and  _46
REMARK   21  A    between atoms: _49  and  _51
REMARK   22  A    between atoms: _51  and  _52
REMARK   23  A    between atoms: _51  and  _54
REMARK   24  A    between atoms: _54  and  _55
REMARK   25  A    between atoms: _58  and  _60
REMARK   26  A    between atoms: _60  and  _61
REMARK   27  A    between atoms: _60  and  _63
REMARK   28  A    between atoms: _63  and  _64
REMARK   29  A    between atoms: _67  and  _69
REMARK   30  A    between atoms: _69  and  _70
REMARK   31  A    between atoms: _69  and  _72
REMARK   32  A    between atoms: _72  and  _73
REMARK   33  A    between atoms: _76  and  _78
REMARK   34  A    between atoms: _78  and  _79
REMARK   35  A    between atoms: _82  and  _84
REMARK   36  A    between atoms: _84  and  _85
REMARK   37  A    between atoms: _84  and  _87
REMARK   38  A    between atoms: _87  and  _88
REMARK   39  A    between atoms: _88  and  _89
REMARK   40  A    between atoms: _94  and  _96
REMARK   41  A    between atoms: _96  and  _97
REMARK   42  A    between atoms: _96  and  _99
REMARK   43  A    between atoms: _99  and  _100
REMARK   44  A    between atoms: _103  and  _105
REMARK   45  A    between atoms: _105  and  _106
REMARK   46  A    between atoms: _109  and  _111
REMARK   47  A    between atoms: _111  and  _112
REMARK   48  A    between atoms: _114  and  _116
REMARK   49  A    between atoms: _116  and  _117
REMARK   50  A    between atoms: _116  and  _119
REMARK   51  A    between atoms: _119  and  _120
REMARK   52  A    between atoms: _120  and  _121
REMARK   53  A    between atoms: _121  and  _122
REMARK   54  A    between atoms: _131  and  _133
REMARK   55  A    between atoms: _133  and  _134
REMARK   56  A    between atoms: _136  and  _138
REMARK   57  A    between atoms: _138  and  _139
REMARK   58  A    between atoms: _138  and  _141
REMARK   59  A    between atoms: _141  and  _142
REMARK   60  A    between atoms: _142  and  _143
REMARK   61  A    between atoms: _143  and  _144
REMARK   62  A    between atoms: _153  and  _155
REMARK   63  A    between atoms: _155  and  _156
REMARK   64  A    between atoms: _155  and  _158
REMARK   65  A    between atoms: _158  and  _159
REMARK   66  A    between atoms: _164  and  _166
REMARK   67  A    between atoms: _166  and  _167
REMARK   68  A    between atoms: _169  and  _171
REMARK   69  A    between atoms: _171  and  _172
REMARK   70  A    between atoms: _171  and  _174
REMARK   71  A    between atoms: _174  and  _175
REMARK   72  A    between atoms: _175  and  _176
REMARK   73  A    between atoms: _176  and  _177
REMARK   74  A    between atoms: _186  and  _188
REMARK   75  A    between atoms: _188  and  _189
REMARK   76  A    between atoms: _191  and  _193
REMARK   77  A    between atoms: _193  and  _194
REMARK   78  A    between atoms: _193  and  _196
REMARK   79  A    between atoms: _196  and  _197
REMARK   80  A    between atoms: _207  and  _209
REMARK   81  A    between atoms: _209  and  _210
REMARK   82  A    between atoms: _213  and  _215
REMARK   83  A    between atoms: _215  and  _216
REMARK   84  A    between atoms: _219  and  _221
REMARK   85  A    between atoms: _221  and  _222
REMARK   86  A    between atoms: _221  and  _224
REMARK   87  A    between atoms: _224  and  _225
REMARK   88  A    between atoms: _228  and  _230
REMARK   89  A    between atoms: _230  and  _231
REMARK   90  A    between atoms: _230  and  _233
REMARK   91  A    between atoms: _233  and  _234
REMARK   92  A    between atoms: _234  and  _235
REMARK   93  A    between atoms: _240  and  _242
REMARK   94  A    between atoms: _242  and  _243
REMARK   95  A    between atoms: _242  and  _245
REMARK   96  A    between atoms: _245  and  _246
REMARK   97  A    between atoms: _249  and  _251
REMARK   98  A    between atoms: _251  and  _252
REMARK   99  A    between atoms: _251  and  _254
REMARK  100  A    between atoms: _254  and  _255
REMARK  101  A    between atoms: _258  and  _260
REMARK  102  A    between atoms: _260  and  _261
REMARK  103  A    between atoms: _260  and  _263
REMARK  104  A    between atoms: _263  and  _264
REMARK  105  A    between atoms: _267  and  _269
REMARK  106  A    between atoms: _269  and  _270
REMARK  107  A    between atoms: _269  and  _272
REMARK  108  A    between atoms: _272  and  _273
REMARK  109  A    between atoms: _275  and  _277
REMARK  110  A    between atoms: _277  and  _278
REMARK  111  A    between atoms: _277  and  _280
REMARK  112  A    between atoms: _283  and  _285
REMARK  113  A    between atoms: _285  and  _286
REMARK  114  A    between atoms: _285  and  _288
REMARK  115  A    between atoms: _288  and  _289
REMARK  116  A    between atoms: _289  and  _290
REMARK  117  A    between atoms: _290  and  _291
REMARK  118  A    between atoms: _291  and  _292
REMARK  119  A    between atoms: _296  and  _298
REMARK  120  A    between atoms: _298  and  _299
REMARK  121  A    between atoms: _298  and  _301
REMARK  122  A    between atoms: _301  and  _302
REMARK  123  A    between atoms: _313  and  _314
REMARK  124  A    between atoms: _319  and  _321
REMARK  125  A    between atoms: _321  and  _322
REMARK  126  A    between atoms: _321  and  _324
REMARK  127  A    between atoms: _324  and  _325
REMARK  128  A    between atoms: _330  and  _332
REMARK  129  A    between atoms: _332  and  _333
REMARK  130  A    between atoms: _332  and  _335
REMARK  131  A    between atoms: _335  and  _336
REMARK  132  A    between atoms: _339  and  _341
REMARK  133  A    between atoms: _341  and  _342
REMARK  134  A    between atoms: _341  and  _344
REMARK  135  A    between atoms: _347  and  _349
REMARK  136  A    between atoms: _349  and  _350
REMARK  137  A    between atoms: _352  and  _354
REMARK  138  A    between atoms: _354  and  _355
REMARK  139  A    between atoms: _354  and  _357
REMARK  140  A    between atoms: _357  and  _358
REMARK  141  A    between atoms: _358  and  _359
REMARK  142  A    between atoms: _359  and  _360
REMARK  143  A    between atoms: _360  and  _361
REMARK  144  A    between atoms: _365  and  _367
REMARK  145  A    between atoms: _367  and  _368
REMARK  146  A    between atoms: _367  and  _370
REMARK  147  A    between atoms: _370  and  _371
REMARK  148  A    between atoms: _374  and  _376
REMARK  149  A    between atoms: _376  and  _377
REMARK  150  A    between atoms: _380  and  _382
REMARK  151  A    between atoms: _382  and  _383
REMARK  152  A    between atoms: _385  and  _387
REMARK  153  A    between atoms: _387  and  _388
REMARK  154  A    between atoms: _387  and  _390
REMARK  155  A    between atoms: _390  and  _391
REMARK  156  A    between atoms: _394  and  _396
REMARK  157  A    between atoms: _396  and  _397
REMARK  158  A    between atoms: _396  and  _399
REMARK  159  A    between atoms: _399  and  _400
REMARK  160  A    between atoms: _403  and  _405
REMARK  161  A    between atoms: _405  and  _406
REMARK  162  A    between atoms: _409  and  _411
REMARK  163  A    between atoms: _411  and  _412
REMARK  164  A    between atoms: _411  and  _414
REMARK  165  A    between atoms: _414  and  _415
REMARK  166  A    between atoms: _415  and  _416
REMARK  167  A    between atoms: _419  and  _421
REMARK  168  A    between atoms: _421  and  _422
REMARK  169  A    between atoms: _421  and  _424
REMARK  170  A    between atoms: _427  and  _429
REMARK  171  A    between atoms: _429  and  _430
REMARK  172  A    between atoms: _429  and  _432
REMARK  173  A    between atoms: _432  and  _433
REMARK  174  A    between atoms: _436  and  _438
REMARK  175  A    between atoms: _438  and  _439
REMARK  176  A    between atoms: _441  and  _443
REMARK  177  A    between atoms: _443  and  _444
REMARK  178  A    between atoms: _443  and  _446
REMARK  179  A    between atoms: _449  and  _451
REMARK  180  A    between atoms: _451  and  _452
REMARK  181  A    between atoms: _454  and  _456
REMARK  182  A    between atoms: _456  and  _457
REMARK  183  A    between atoms: _456  and  _459
REMARK  184  A    between atoms: _459  and  _460
REMARK  185  A    between atoms: _463  and  _465
REMARK  186  A    between atoms: _465  and  _466
REMARK  187  A    between atoms: _465  and  _468
REMARK  188  A    between atoms: _468  and  _469
REMARK  189  A    between atoms: _474  and  _476
REMARK  190  A    between atoms: _476  and  _477
REMARK  191  A    between atoms: _476  and  _479
REMARK  192  A    between atoms: _482  and  _484
REMARK  193  A    between atoms: _484  and  _485
REMARK  194  A    between atoms: _484  and  _487
REMARK  195  A    between atoms: _487  and  _488
REMARK  196  A    between atoms: _488  and  _489
REMARK  197  A    between atoms: _494  and  _496
REMARK  198  A    between atoms: _496  and  _497
REMARK  199  A    between atoms: _501  and  _502
REMARK  200  A    between atoms: _507  and  _509
REMARK  201  A    between atoms: _509  and  _510
REMARK  202  A    between atoms: _509  and  _512
REMARK  203  A    between atoms: _512  and  _513
REMARK  204  A    between atoms: _513  and  _514
REMARK  205  A    between atoms: _517  and  _519
REMARK  206  A    between atoms: _519  and  _520
REMARK  207  A    between atoms: _519  and  _522
REMARK  208  A    between atoms: _525  and  _527
REMARK  209  A    between atoms: _527  and  _528
REMARK  210  A    between atoms: _527  and  _530
REMARK  211  A    between atoms: _530  and  _531
REMARK  212  A    between atoms: _535  and  _536
REMARK  213  A    between atoms: _541  and  _543
REMARK  214  A    between atoms: _543  and  _544
REMARK  215  A    between atoms: _543  and  _546
REMARK  216  A    between atoms: _546  and  _547
REMARK  217  A    between atoms: _550  and  _552
REMARK  218  A    between atoms: _552  and  _553
REMARK  219  A    between atoms: _556  and  _558
REMARK  220  A    between atoms: _558  and  _559
REMARK  221  A    between atoms: _558  and  _561
REMARK  222  A    between atoms: _561  and  _562
REMARK  223  A    between atoms: _565  and  _567
REMARK  224  A    between atoms: _567  and  _568
REMARK  225  A    between atoms: _567  and  _570
REMARK  226  A    between atoms: _570  and  _571
REMARK  227  A    between atoms: _573  and  _575
REMARK  228  A    between atoms: _575  and  _576
REMARK  229  A    between atoms: _578  and  _580
REMARK  230  A    between atoms: _580  and  _581
REMARK  231  A    between atoms: _580  and  _583
REMARK  232  A    between atoms: _583  and  _584
REMARK  233  A    between atoms: _587  and  _589
REMARK  234  A    between atoms: _589  and  _590
REMARK  235  A    between atoms: _589  and  _592
REMARK                            x       y       z     vdW  Elec       q    Type
REMARK                         _______ _______ _______ _____ _____    ______ ____
ROOT
ATOM      1  O   HOH     1      -0.476  -3.999  17.482  0.00  0.00    +0.000 OA
ENDROOT
TORSDOF 0
REMARK  Name = ../refined-set-2016/4xtz/4xtz_pocket.pdb
REMARK  235 active torsions:
REMARK  status: ('A' for Active; 'I' for Inactive)
REMARK    1  A    between atoms: _1  and  _3
REMARK    2  A    between atoms: _3  and  _4
REMARK    3  A    between atoms: _3  and  _6
REMARK    4  A    between atoms: _6  and  _7
REMARK    5  A    between atoms: _10  and  _12
REMARK    6  A    between atoms: _12  and  _13
REMARK    7  A    between atoms: _15  and  _17
REMARK    8  A    between atoms: _17  and  _18
REMARK    9  A    between atoms: _17  and  _20
REMARK   10  A    between atoms: _20  and  _21
REMARK   11  A    between atoms: _23  and  _25
REMARK   12  A    between atoms: _25  and  _26
REMARK   13  A    between atoms: _25  and  _28
REMARK   14  A    between atoms: _28  and  _29
REMARK   15  A    between atoms: _32  and  _34
REMARK   16  A    between atoms: _34  and  _35
REMARK   17  A    between atoms: _34  and  _37
REMARK   18  A    between atoms: _37  and  _38
REMARK   19  A    between atoms: _43  and  _45
REMARK   20  A    between atoms: _45  and  _46
REMARK   21  A    between atoms: _49  and  _51
REMARK   22  A    between atoms: _51  and  _52
REMARK   23  A    between atoms: _51  and  _54
REMARK   24  A    between atoms: _54  and  _55
REMARK   25  A    between atoms: _58  and  _60
REMARK   26  A    between atoms: _60  and  _61
REMARK   27  A    between atoms: _60  and  _63
REMARK   28  A    between atoms: _63  and  _64
REMARK   29  A    between atoms: _67  and  _69
REMARK   30  A    between atoms: _69  and  _70
REMARK   31  A    between atoms: _69  and  _72
REMARK   32  A    between atoms: _72  and  _73
REMARK   33  A    between atoms: _76  and  _78
REMARK   34  A    between atoms: _78  and  _79
REMARK   35  A    between atoms: _82  and  _84
REMARK   36  A    between atoms: _84  and  _85
REMARK   37  A    between atoms: _84  and  _87
REMARK   38  A    between atoms: _87  and  _88
REMARK   39  A    between atoms: _88  and  _89
REMARK   40  A    between atoms: _94  and  _96
REMARK   41  A    between atoms: _96  and  _97
REMARK   42  A    between atoms: _96  and  _99
REMARK   43  A    between atoms: _99  and  _100
REMARK   44  A    between atoms: _103  and  _105
REMARK   45  A    between atoms: _105  and  _106
REMARK   46  A    between atoms: _109  and  _111
REMARK   47  A    between atoms: _111  and  _112
REMARK   48  A    between atoms: _114  and  _116
REMARK   49  A    between atoms: _116  and  _117
REMARK   50  A    between atoms: _116  and  _119
REMARK   51  A    between atoms: _119  and  _120
REMARK   52  A    between atoms: _120  and  _121
REMARK   53  A    between atoms: _121  and  _122
REMARK   54  A    between atoms: _131  and  _133
REMARK   55  A    between atoms: _133  and  _134
REMARK   56  A    between atoms: _136  and  _138
REMARK   57  A    between atoms: _138  and  _139
REMARK   58  A    between atoms: _138  and  _141
REMARK   59  A    between atoms: _141  and  _142
REMARK   60  A    between atoms: _142  and  _143
REMARK   61  A    between atoms: _143  and  _144
REMARK   62  A    between atoms: _153  and  _155
REMARK   63  A    between atoms: _155  and  _156
REMARK   64  A    between atoms: _155  and  _158
REMARK   65  A    between atoms: _158  and  _159
REMARK   66  A    between atoms: _164  and  _166
REMARK   67  A    between atoms: _166  and  _167
REMARK   68  A    between atoms: _169  and  _171
REMARK   69  A    between atoms: _171  and  _172
REMARK   70  A    between atoms: _171  and  _174
REMARK   71  A    between atoms: _174  and  _175
REMARK   72  A    between atoms: _175  and  _176
REMARK   73  A    between atoms: _176  and  _177
REMARK   74  A    between atoms: _186  and  _188
REMARK   75  A    between atoms: _188  and  _189
REMARK   76  A    between atoms: _191  and  _193
REMARK   77  A    between atoms: _193  and  _194
REMARK   78  A    between atoms: _193  and  _196
REMARK   79  A    between atoms: _196  and  _197
REMARK   80  A    between atoms: _207  and  _209
REMARK   81  A    between atoms: _209  and  _210
REMARK   82  A    between atoms: _213  and  _215
REMARK   83  A    between atoms: _215  and  _216
REMARK   84  A    between atoms: _219  and  _221
REMARK   85  A    between atoms: _221  and  _222
REMARK   86  A    between atoms: _221  and  _224
REMARK   87  A    between atoms: _224  and  _225
REMARK   88  A    between atoms: _228  and  _230
REMARK   89  A    between atoms: _230  and  _231
REMARK   90  A    between atoms: _230  and  _233
REMARK   91  A    between atoms: _233  and  _234
REMARK   92  A    between atoms: _234  and  _235
REMARK   93  A    between atoms: _240  and  _242
REMARK   94  A    between atoms: _242  and  _243
REMARK   95  A    between atoms: _242  and  _245
REMARK   96  A    between atoms: _245  and  _246
REMARK   97  A    between atoms: _249  and  _251
REMARK   98  A    between atoms: _251  and  _252
REMARK   99  A    between atoms: _251  and  _254
REMARK  100  A    between atoms: _254  and  _255
REMARK  101  A    between atoms: _258  and  _260
REMARK  102  A    between atoms: _260  and  _261
REMARK  103  A    between atoms: _260  and  _263
REMARK  104  A    between atoms: _263  and  _264
REMARK  105  A    between atoms: _267  and  _269
REMARK  106  A    between atoms: _269  and  _270
REMARK  107  A    between atoms: _269  and  _272
REMARK  108  A    between atoms: _272  and  _273
REMARK  109  A    between atoms: _275  and  _277
REMARK  110  A    between atoms: _277  and  _278
REMARK  111  A    between atoms: _277  and  _280
REMARK  112  A    between atoms: _283  and  _285
REMARK  113  A    between atoms: _285  and  _286
REMARK  114  A    between atoms: _285  and  _288
REMARK  115  A    between atoms: _288  and  _289
REMARK  116  A    between atoms: _289  and  _290
REMARK  117  A    between atoms: _290  and  _291
REMARK  118  A    between atoms: _291  and  _292
REMARK  119  A    between atoms: _296  and  _298
REMARK  120  A    between atoms: _298  and  _299
REMARK  121  A    between atoms: _298  and  _301
REMARK  122  A    between atoms: _301  and  _302
REMARK  123  A    between atoms: _313  and  _314
REMARK  124  A    between atoms: _319  and  _321
REMARK  125  A    between atoms: _321  and  _322
REMARK  126  A    between atoms: _321  and  _324
REMARK  127  A    between atoms: _324  and  _325
REMARK  128  A    between atoms: _330  and  _332
REMARK  129  A    between atoms: _332  and  _333
REMARK  130  A    between atoms: _332  and  _335
REMARK  131  A    between atoms: _335  and  _336
REMARK  132  A    between atoms: _339  and  _341
REMARK  133  A    between atoms: _341  and  _342
REMARK  134  A    between atoms: _341  and  _344
REMARK  135  A    between atoms: _347  and  _349
REMARK  136  A    between atoms: _349  and  _350
REMARK  137  A    between atoms: _352  and  _354
REMARK  138  A    between atoms: _354  and  _355
REMARK  139  A    between atoms: _354  and  _357
REMARK  140  A    between atoms: _357  and  _358
REMARK  141  A    between atoms: _358  and  _359
REMARK  142  A    between atoms: _359  and  _360
REMARK  143  A    between atoms: _360  and  _361
REMARK  144  A    between atoms: _365  and  _367
REMARK  145  A    between atoms: _367  and  _368
REMARK  146  A    between atoms: _367  and  _370
REMARK  147  A    between atoms: _370  and  _371
REMARK  148  A    between atoms: _374  and  _376
REMARK  149  A    between atoms: _376  and  _377
REMARK  150  A    between atoms: _380  and  _382
REMARK  151  A    between atoms: _382  and  _383
REMARK  152  A    between atoms: _385  and  _387
REMARK  153  A    between atoms: _387  and  _388
REMARK  154  A    between atoms: _387  and  _390
REMARK  155  A    between atoms: _390  and  _391
REMARK  156  A    between atoms: _394  and  _396
REMARK  157  A    between atoms: _396  and  _397
REMARK  158  A    between atoms: _396  and  _399
REMARK  159  A    between atoms: _399  and  _400
REMARK  160  A    between atoms: _403  and  _405
REMARK  161  A    between atoms: _405  and  _406
REMARK  162  A    between atoms: _409  and  _411
REMARK  163  A    between atoms: _411  and  _412
REMARK  164  A    between atoms: _411  and  _414
REMARK  165  A    between atoms: _414  and  _415
REMARK  166  A    between atoms: _415  and  _416
REMARK  167  A    between atoms: _419  and  _421
REMARK  168  A    between atoms: _421  and  _422
REMARK  169  A    between atoms: _421  and  _424
REMARK  170  A    between atoms: _427  and  _429
REMARK  171  A    between atoms: _429  and  _430
REMARK  172  A    between atoms: _429  and  _432
REMARK  173  A    between atoms: _432  and  _433
REMARK  174  A    between atoms: _436  and  _438
REMARK  175  A    between atoms: _438  and  _439
REMARK  176  A    between atoms: _441  and  _443
REMARK  177  A    between atoms: _443  and  _444
REMARK  178  A    between atoms: _443  and  _446
REMARK  179  A    between atoms: _449  and  _451
REMARK  180  A    between atoms: _451  and  _452
REMARK  181  A    between atoms: _454  and  _456
REMARK  182  A    between atoms: _456  and  _457
REMARK  183  A    between atoms: _456  and  _459
REMARK  184  A    between atoms: _459  and  _460
REMARK  185  A    between atoms: _463  and  _465
REMARK  186  A    between atoms: _465  and  _466
REMARK  187  A    between atoms: _465  and  _468
REMARK  188  A    between atoms: _468  and  _469
REMARK  189  A    between atoms: _474  and  _476
REMARK  190  A    between atoms: _476  and  _477
REMARK  191  A    between atoms: _476  and  _479
REMARK  192  A    between atoms: _482  and  _484
REMARK  193  A    between atoms: _484  and  _485
REMARK  194  A    between atoms: _484  and  _487
REMARK  195  A    between atoms: _487  and  _488
REMARK  196  A    between atoms: _488  and  _489
REMARK  197  A    between atoms: _494  and  _496
REMARK  198  A    between atoms: _496  and  _497
REMARK  199  A    between atoms: _501  and  _502
REMARK  200  A    between atoms: _507  and  _509
REMARK  201  A    between atoms: _509  and  _510
REMARK  202  A    between atoms: _509  and  _512
REMARK  203  A    between atoms: _512  and  _513
REMARK  204  A    between atoms: _513  and  _514
REMARK  205  A    between atoms: _517  and  _519
REMARK  206  A    between atoms: _519  and  _520
REMARK  207  A    between atoms: _519  and  _522
REMARK  208  A    between atoms: _525  and  _527
REMARK  209  A    between atoms: _527  and  _528
REMARK  210  A    between atoms: _527  and  _530
REMARK  211  A    between atoms: _530  and  _531
REMARK  212  A    between atoms: _535  and  _536
REMARK  213  A    between atoms: _541  and  _543
REMARK  214  A    between atoms: _543  and  _544
REMARK  215  A    between atoms: _543  and  _546
REMARK  216  A    between atoms: _546  and  _547
REMARK  217  A    between atoms: _550  and  _552
REMARK  218  A    between atoms: _552  and  _553
REMARK  219  A    between atoms: _556  and  _558
REMARK  220  A    between atoms: _558  and  _559
REMARK  221  A    between atoms: _558  and  _561
REMARK  222  A    between atoms: _561  and  _562
REMARK  223  A    between atoms: _565  and  _567
REMARK  224  A    between atoms: _567  and  _568
REMARK  225  A    between atoms: _567  and  _570
REMARK  226  A    between atoms: _570  and  _571
REMARK  227  A    between atoms: _573  and  _575
REMARK  228  A    between atoms: _575  and  _576
REMARK  229  A    between atoms: _578  and  _580
REMARK  230  A    between atoms: _580  and  _581
REMARK  231  A    between atoms: _580  and  _583
REMARK  232  A    between atoms: _583  and  _584
REMARK  233  A    between atoms: _587  and  _589
REMARK  234  A    between atoms: _589  and  _590
REMARK  235  A    between atoms: _589  and  _592
REMARK                            x       y       z     vdW  Elec       q    Type
REMARK                         _______ _______ _______ _____ _____    ______ ____
ROOT
ATOM      1  O   HOH     1     -11.203   2.236  15.857  0.00  0.00    +0.000 OA
ENDROOT
TORSDOF 0
REMARK  Name = ../refined-set-2016/4xtz/4xtz_pocket.pdb
REMARK  235 active torsions:
REMARK  status: ('A' for Active; 'I' for Inactive)
REMARK    1  A    between atoms: _1  and  _3
REMARK    2  A    between atoms: _3  and  _4
REMARK    3  A    between atoms: _3  and  _6
REMARK    4  A    between atoms: _6  and  _7
REMARK    5  A    between atoms: _10  and  _12
REMARK    6  A    between atoms: _12  and  _13
REMARK    7  A    between atoms: _15  and  _17
REMARK    8  A    between atoms: _17  and  _18
REMARK    9  A    between atoms: _17  and  _20
REMARK   10  A    between atoms: _20  and  _21
REMARK   11  A    between atoms: _23  and  _25
REMARK   12  A    between atoms: _25  and  _26
REMARK   13  A    between atoms: _25  and  _28
REMARK   14  A    between atoms: _28  and  _29
REMARK   15  A    between atoms: _32  and  _34
REMARK   16  A    between atoms: _34  and  _35
REMARK   17  A    between atoms: _34  and  _37
REMARK   18  A    between atoms: _37  and  _38
REMARK   19  A    between atoms: _43  and  _45
REMARK   20  A    between atoms: _45  and  _46
REMARK   21  A    between atoms: _49  and  _51
REMARK   22  A    between atoms: _51  and  _52
REMARK   23  A    between atoms: _51  and  _54
REMARK   24  A    between atoms: _54  and  _55
REMARK   25  A    between atoms: _58  and  _60
REMARK   26  A    between atoms: _60  and  _61
REMARK   27  A    between atoms: _60  and  _63
REMARK   28  A    between atoms: _63  and  _64
REMARK   29  A    between atoms: _67  and  _69
REMARK   30  A    between atoms: _69  and  _70
REMARK   31  A    between atoms: _69  and  _72
REMARK   32  A    between atoms: _72  and  _73
REMARK   33  A    between atoms: _76  and  _78
REMARK   34  A    between atoms: _78  and  _79
REMARK   35  A    between atoms: _82  and  _84
REMARK   36  A    between atoms: _84  and  _85
REMARK   37  A    between atoms: _84  and  _87
REMARK   38  A    between atoms: _87  and  _88
REMARK   39  A    between atoms: _88  and  _89
REMARK   40  A    between atoms: _94  and  _96
REMARK   41  A    between atoms: _96  and  _97
REMARK   42  A    between atoms: _96  and  _99
REMARK   43  A    between atoms: _99  and  _100
REMARK   44  A    between atoms: _103  and  _105
REMARK   45  A    between atoms: _105  and  _106
REMARK   46  A    between atoms: _109  and  _111
REMARK   47  A    between atoms: _111  and  _112
REMARK   48  A    between atoms: _114  and  _116
REMARK   49  A    between atoms: _116  and  _117
REMARK   50  A    between atoms: _116  and  _119
REMARK   51  A    between atoms: _119  and  _120
REMARK   52  A    between atoms: _120  and  _121
REMARK   53  A    between atoms: _121  and  _122
REMARK   54  A    between atoms: _131  and  _133
REMARK   55  A    between atoms: _133  and  _134
REMARK   56  A    between atoms: _136  and  _138
REMARK   57  A    between atoms: _138  and  _139
REMARK   58  A    between atoms: _138  and  _141
REMARK   59  A    between atoms: _141  and  _142
REMARK   60  A    between atoms: _142  and  _143
REMARK   61  A    between atoms: _143  and  _144
REMARK   62  A    between atoms: _153  and  _155
REMARK   63  A    between atoms: _155  and  _156
REMARK   64  A    between atoms: _155  and  _158
REMARK   65  A    between atoms: _158  and  _159
REMARK   66  A    between atoms: _164  and  _166
REMARK   67  A    between atoms: _166  and  _167
REMARK   68  A    between atoms: _169  and  _171
REMARK   69  A    between atoms: _171  and  _172
REMARK   70  A    between atoms: _171  and  _174
REMARK   71  A    between atoms: _174  and  _175
REMARK   72  A    between atoms: _175  and  _176
REMARK   73  A    between atoms: _176  and  _177
REMARK   74  A    between atoms: _186  and  _188
REMARK   75  A    between atoms: _188  and  _189
REMARK   76  A    between atoms: _191  and  _193
REMARK   77  A    between atoms: _193  and  _194
REMARK   78  A    between atoms: _193  and  _196
REMARK   79  A    between atoms: _196  and  _197
REMARK   80  A    between atoms: _207  and  _209
REMARK   81  A    between atoms: _209  and  _210
REMARK   82  A    between atoms: _213  and  _215
REMARK   83  A    between atoms: _215  and  _216
REMARK   84  A    between atoms: _219  and  _221
REMARK   85  A    between atoms: _221  and  _222
REMARK   86  A    between atoms: _221  and  _224
REMARK   87  A    between atoms: _224  and  _225
REMARK   88  A    between atoms: _228  and  _230
REMARK   89  A    between atoms: _230  and  _231
REMARK   90  A    between atoms: _230  and  _233
REMARK   91  A    between atoms: _233  and  _234
REMARK   92  A    between atoms: _234  and  _235
REMARK   93  A    between atoms: _240  and  _242
REMARK   94  A    between atoms: _242  and  _243
REMARK   95  A    between atoms: _242  and  _245
REMARK   96  A    between atoms: _245  and  _246
REMARK   97  A    between atoms: _249  and  _251
REMARK   98  A    between atoms: _251  and  _252
REMARK   99  A    between atoms: _251  and  _254
REMARK  100  A    between atoms: _254  and  _255
REMARK  101  A    between atoms: _258  and  _260
REMARK  102  A    between atoms: _260  and  _261
REMARK  103  A    between atoms: _260  and  _263
REMARK  104  A    between atoms: _263  and  _264
REMARK  105  A    between atoms: _267  and  _269
REMARK  106  A    between atoms: _269  and  _270
REMARK  107  A    between atoms: _269  and  _272
REMARK  108  A    between atoms: _272  and  _273
REMARK  109  A    between atoms: _275  and  _277
REMARK  110  A    between atoms: _277  and  _278
REMARK  111  A    between atoms: _277  and  _280
REMARK  112  A    between atoms: _283  and  _285
REMARK  113  A    between atoms: _285  and  _286
REMARK  114  A    between atoms: _285  and  _288
REMARK  115  A    between atoms: _288  and  _289
REMARK  116  A    between atoms: _289  and  _290
REMARK  117  A    between atoms: _290  and  _291
REMARK  118  A    between atoms: _291  and  _292
REMARK  119  A    between atoms: _296  and  _298
REMARK  120  A    between atoms: _298  and  _299
REMARK  121  A    between atoms: _298  and  _301
REMARK  122  A    between atoms: _301  and  _302
REMARK  123  A    between atoms: _313  and  _314
REMARK  124  A    between atoms: _319  and  _321
REMARK  125  A    between atoms: _321  and  _322
REMARK  126  A    between atoms: _321  and  _324
REMARK  127  A    between atoms: _324  and  _325
REMARK  128  A    between atoms: _330  and  _332
REMARK  129  A    between atoms: _332  and  _333
REMARK  130  A    between atoms: _332  and  _335
REMARK  131  A    between atoms: _335  and  _336
REMARK  132  A    between atoms: _339  and  _341
REMARK  133  A    between atoms: _341  and  _342
REMARK  134  A    between atoms: _341  and  _344
REMARK  135  A    between atoms: _347  and  _349
REMARK  136  A    between atoms: _349  and  _350
REMARK  137  A    between atoms: _352  and  _354
REMARK  138  A    between atoms: _354  and  _355
REMARK  139  A    between atoms: _354  and  _357
REMARK  140  A    between atoms: _357  and  _358
REMARK  141  A    between atoms: _358  and  _359
REMARK  142  A    between atoms: _359  and  _360
REMARK  143  A    between atoms: _360  and  _361
REMARK  144  A    between atoms: _365  and  _367
REMARK  145  A    between atoms: _367  and  _368
REMARK  146  A    between atoms: _367  and  _370
REMARK  147  A    between atoms: _370  and  _371
REMARK  148  A    between atoms: _374  and  _376
REMARK  149  A    between atoms: _376  and  _377
REMARK  150  A    between atoms: _380  and  _382
REMARK  151  A    between atoms: _382  and  _383
REMARK  152  A    between atoms: _385  and  _387
REMARK  153  A    between atoms: _387  and  _388
REMARK  154  A    between atoms: _387  and  _390
REMARK  155  A    between atoms: _390  and  _391
REMARK  156  A    between atoms: _394  and  _396
REMARK  157  A    between atoms: _396  and  _397
REMARK  158  A    between atoms: _396  and  _399
REMARK  159  A    between atoms: _399  and  _400
REMARK  160  A    between atoms: _403  and  _405
REMARK  161  A    between atoms: _405  and  _406
REMARK  162  A    between atoms: _409  and  _411
REMARK  163  A    between atoms: _411  and  _412
REMARK  164  A    between atoms: _411  and  _414
REMARK  165  A    between atoms: _414  and  _415
REMARK  166  A    between atoms: _415  and  _416
REMARK  167  A    between atoms: _419  and  _421
REMARK  168  A    between atoms: _421  and  _422
REMARK  169  A    between atoms: _421  and  _424
REMARK  170  A    between atoms: _427  and  _429
REMARK  171  A    between atoms: _429  and  _430
REMARK  172  A    between atoms: _429  and  _432
REMARK  173  A    between atoms: _432  and  _433
REMARK  174  A    between atoms: _436  and  _438
REMARK  175  A    between atoms: _438  and  _439
REMARK  176  A    between atoms: _441  and  _443
REMARK  177  A    between atoms: _443  and  _444
REMARK  178  A    between atoms: _443  and  _446
REMARK  179  A    between atoms: _449  and  _451
REMARK  180  A    between atoms: _451  and  _452
REMARK  181  A    between atoms: _454  and  _456
REMARK  182  A    between atoms: _456  and  _457
REMARK  183  A    between atoms: _456  and  _459
REMARK  184  A    between atoms: _459  and  _460
REMARK  185  A    between atoms: _463  and  _465
REMARK  186  A    between atoms: _465  and  _466
REMARK  187  A    between atoms: _465  and  _468
REMARK  188  A    between atoms: _468  and  _469
REMARK  189  A    between atoms: _474  and  _476
REMARK  190  A    between atoms: _476  and  _477
REMARK  191  A    between atoms: _476  and  _479
REMARK  192  A    between atoms: _482  and  _484
REMARK  193  A    between atoms: _484  and  _485
REMARK  194  A    between atoms: _484  and  _487
REMARK  195  A    between atoms: _487  and  _488
REMARK  196  A    between atoms: _488  and  _489
REMARK  197  A    between atoms: _494  and  _496
REMARK  198  A    between atoms: _496  and  _497
REMARK  199  A    between atoms: _501  and  _502
REMARK  200  A    between atoms: _507  and  _509
REMARK  201  A    between atoms: _509  and  _510
REMARK  202  A    between atoms: _509  and  _512
REMARK  203  A    between atoms: _512  and  _513
REMARK  204  A    between atoms: _513  and  _514
REMARK  205  A    between atoms: _517  and  _519
REMARK  206  A    between atoms: _519  and  _520
REMARK  207  A    between atoms: _519  and  _522
REMARK  208  A    between atoms: _525  and  _527
REMARK  209  A    between atoms: _527  and  _528
REMARK  210  A    between atoms: _527  and  _530
REMARK  211  A    between atoms: _530  and  _531
REMARK  212  A    between atoms: _535  and  _536
REMARK  213  A    between atoms: _541  and  _543
REMARK  214  A    between atoms: _543  and  _544
REMARK  215  A    between atoms: _543  and  _546
REMARK  216  A    between atoms: _546  and  _547
REMARK  217  A    between atoms: _550  and  _552
REMARK  218  A    between atoms: _552  and  _553
REMARK  219  A    between atoms: _556  and  _558
REMARK  220  A    between atoms: _558  and  _559
REMARK  221  A    between atoms: _558  and  _561
REMARK  222  A    between atoms: _561  and  _562
REMARK  223  A    between atoms: _565  and  _567
REMARK  224  A    between atoms: _567  and  _568
REMARK  225  A    between atoms: _567  and  _570
REMARK  226  A    between atoms: _570  and  _571
REMARK  227  A    between atoms: _573  and  _575
REMARK  228  A    between atoms: _575  and  _576
REMARK  229  A    between atoms: _578  and  _580
REMARK  230  A    between atoms: _580  and  _581
REMARK  231  A    between atoms: _580  and  _583
REMARK  232  A    between atoms: _583  and  _584
REMARK  233  A    between atoms: _587  and  _589
REMARK  234  A    between atoms: _589  and  _590
REMARK  235  A    between atoms: _589  and  _592
REMARK                            x       y       z     vdW  Elec       q    Type
REMARK                         _______ _______ _______ _____ _____    ______ ____
ROOT
ATOM      1  O   HOH     1      -6.886  -1.754   5.791  0.00  0.00    +0.000 OA
ENDROOT
TORSDOF 0
REMARK  Name = ../refined-set-2016/4xtz/4xtz_pocket.pdb
REMARK  235 active torsions:
REMARK  status: ('A' for Active; 'I' for Inactive)
REMARK    1  A    between atoms: _1  and  _3
REMARK    2  A    between atoms: _3  and  _4
REMARK    3  A    between atoms: _3  and  _6
REMARK    4  A    between atoms: _6  and  _7
REMARK    5  A    between atoms: _10  and  _12
REMARK    6  A    between atoms: _12  and  _13
REMARK    7  A    between atoms: _15  and  _17
REMARK    8  A    between atoms: _17  and  _18
REMARK    9  A    between atoms: _17  and  _20
REMARK   10  A    between atoms: _20  and  _21
REMARK   11  A    between atoms: _23  and  _25
REMARK   12  A    between atoms: _25  and  _26
REMARK   13  A    between atoms: _25  and  _28
REMARK   14  A    between atoms: _28  and  _29
REMARK   15  A    between atoms: _32  and  _34
REMARK   16  A    between atoms: _34  and  _35
REMARK   17  A    between atoms: _34  and  _37
REMARK   18  A    between atoms: _37  and  _38
REMARK   19  A    between atoms: _43  and  _45
REMARK   20  A    between atoms: _45  and  _46
REMARK   21  A    between atoms: _49  and  _51
REMARK   22  A    between atoms: _51  and  _52
REMARK   23  A    between atoms: _51  and  _54
REMARK   24  A    between atoms: _54  and  _55
REMARK   25  A    between atoms: _58  and  _60
REMARK   26  A    between atoms: _60  and  _61
REMARK   27  A    between atoms: _60  and  _63
REMARK   28  A    between atoms: _63  and  _64
REMARK   29  A    between atoms: _67  and  _69
REMARK   30  A    between atoms: _69  and  _70
REMARK   31  A    between atoms: _69  and  _72
REMARK   32  A    between atoms: _72  and  _73
REMARK   33  A    between atoms: _76  and  _78
REMARK   34  A    between atoms: _78  and  _79
REMARK   35  A    between atoms: _82  and  _84
REMARK   36  A    between atoms: _84  and  _85
REMARK   37  A    between atoms: _84  and  _87
REMARK   38  A    between atoms: _87  and  _88
REMARK   39  A    between atoms: _88  and  _89
REMARK   40  A    between atoms: _94  and  _96
REMARK   41  A    between atoms: _96  and  _97
REMARK   42  A    between atoms: _96  and  _99
REMARK   43  A    between atoms: _99  and  _100
REMARK   44  A    between atoms: _103  and  _105
REMARK   45  A    between atoms: _105  and  _106
REMARK   46  A    between atoms: _109  and  _111
REMARK   47  A    between atoms: _111  and  _112
REMARK   48  A    between atoms: _114  and  _116
REMARK   49  A    between atoms: _116  and  _117
REMARK   50  A    between atoms: _116  and  _119
REMARK   51  A    between atoms: _119  and  _120
REMARK   52  A    between atoms: _120  and  _121
REMARK   53  A    between atoms: _121  and  _122
REMARK   54  A    between atoms: _131  and  _133
REMARK   55  A    between atoms: _133  and  _134
REMARK   56  A    between atoms: _136  and  _138
REMARK   57  A    between atoms: _138  and  _139
REMARK   58  A    between atoms: _138  and  _141
REMARK   59  A    between atoms: _141  and  _142
REMARK   60  A    between atoms: _142  and  _143
REMARK   61  A    between atoms: _143  and  _144
REMARK   62  A    between atoms: _153  and  _155
REMARK   63  A    between atoms: _155  and  _156
REMARK   64  A    between atoms: _155  and  _158
REMARK   65  A    between atoms: _158  and  _159
REMARK   66  A    between atoms: _164  and  _166
REMARK   67  A    between atoms: _166  and  _167
REMARK   68  A    between atoms: _169  and  _171
REMARK   69  A    between atoms: _171  and  _172
REMARK   70  A    between atoms: _171  and  _174
REMARK   71  A    between atoms: _174  and  _175
REMARK   72  A    between atoms: _175  and  _176
REMARK   73  A    between atoms: _176  and  _177
REMARK   74  A    between atoms: _186  and  _188
REMARK   75  A    between atoms: _188  and  _189
REMARK   76  A    between atoms: _191  and  _193
REMARK   77  A    between atoms: _193  and  _194
REMARK   78  A    between atoms: _193  and  _196
REMARK   79  A    between atoms: _196  and  _197
REMARK   80  A    between atoms: _207  and  _209
REMARK   81  A    between atoms: _209  and  _210
REMARK   82  A    between atoms: _213  and  _215
REMARK   83  A    between atoms: _215  and  _216
REMARK   84  A    between atoms: _219  and  _221
REMARK   85  A    between atoms: _221  and  _222
REMARK   86  A    between atoms: _221  and  _224
REMARK   87  A    between atoms: _224  and  _225
REMARK   88  A    between atoms: _228  and  _230
REMARK   89  A    between atoms: _230  and  _231
REMARK   90  A    between atoms: _230  and  _233
REMARK   91  A    between atoms: _233  and  _234
REMARK   92  A    between atoms: _234  and  _235
REMARK   93  A    between atoms: _240  and  _242
REMARK   94  A    between atoms: _242  and  _243
REMARK   95  A    between atoms: _242  and  _245
REMARK   96  A    between atoms: _245  and  _246
REMARK   97  A    between atoms: _249  and  _251
REMARK   98  A    between atoms: _251  and  _252
REMARK   99  A    between atoms: _251  and  _254
REMARK  100  A    between atoms: _254  and  _255
REMARK  101  A    between atoms: _258  and  _260
REMARK  102  A    between atoms: _260  and  _261
REMARK  103  A    between atoms: _260  and  _263
REMARK  104  A    between atoms: _263  and  _264
REMARK  105  A    between atoms: _267  and  _269
REMARK  106  A    between atoms: _269  and  _270
REMARK  107  A    between atoms: _269  and  _272
REMARK  108  A    between atoms: _272  and  _273
REMARK  109  A    between atoms: _275  and  _277
REMARK  110  A    between atoms: _277  and  _278
REMARK  111  A    between atoms: _277  and  _280
REMARK  112  A    between atoms: _283  and  _285
REMARK  113  A    between atoms: _285  and  _286
REMARK  114  A    between atoms: _285  and  _288
REMARK  115  A    between atoms: _288  and  _289
REMARK  116  A    between atoms: _289  and  _290
REMARK  117  A    between atoms: _290  and  _291
REMARK  118  A    between atoms: _291  and  _292
REMARK  119  A    between atoms: _296  and  _298
REMARK  120  A    between atoms: _298  and  _299
REMARK  121  A    between atoms: _298  and  _301
REMARK  122  A    between atoms: _301  and  _302
REMARK  123  A    between atoms: _313  and  _314
REMARK  124  A    between atoms: _319  and  _321
REMARK  125  A    between atoms: _321  and  _322
REMARK  126  A    between atoms: _321  and  _324
REMARK  127  A    between atoms: _324  and  _325
REMARK  128  A    between atoms: _330  and  _332
REMARK  129  A    between atoms: _332  and  _333
REMARK  130  A    between atoms: _332  and  _335
REMARK  131  A    between atoms: _335  and  _336
REMARK  132  A    between atoms: _339  and  _341
REMARK  133  A    between atoms: _341  and  _342
REMARK  134  A    between atoms: _341  and  _344
REMARK  135  A    between atoms: _347  and  _349
REMARK  136  A    between atoms: _349  and  _350
REMARK  137  A    between atoms: _352  and  _354
REMARK  138  A    between atoms: _354  and  _355
REMARK  139  A    between atoms: _354  and  _357
REMARK  140  A    between atoms: _357  and  _358
REMARK  141  A    between atoms: _358  and  _359
REMARK  142  A    between atoms: _359  and  _360
REMARK  143  A    between atoms: _360  and  _361
REMARK  144  A    between atoms: _365  and  _367
REMARK  145  A    between atoms: _367  and  _368
REMARK  146  A    between atoms: _367  and  _370
REMARK  147  A    between atoms: _370  and  _371
REMARK  148  A    between atoms: _374  and  _376
REMARK  149  A    between atoms: _376  and  _377
REMARK  150  A    between atoms: _380  and  _382
REMARK  151  A    between atoms: _382  and  _383
REMARK  152  A    between atoms: _385  and  _387
REMARK  153  A    between atoms: _387  and  _388
REMARK  154  A    between atoms: _387  and  _390
REMARK  155  A    between atoms: _390  and  _391
REMARK  156  A    between atoms: _394  and  _396
REMARK  157  A    between atoms: _396  and  _397
REMARK  158  A    between atoms: _396  and  _399
REMARK  159  A    between atoms: _399  and  _400
REMARK  160  A    between atoms: _403  and  _405
REMARK  161  A    between atoms: _405  and  _406
REMARK  162  A    between atoms: _409  and  _411
REMARK  163  A    between atoms: _411  and  _412
REMARK  164  A    between atoms: _411  and  _414
REMARK  165  A    between atoms: _414  and  _415
REMARK  166  A    between atoms: _415  and  _416
REMARK  167  A    between atoms: _419  and  _421
REMARK  168  A    between atoms: _421  and  _422
REMARK  169  A    between atoms: _421  and  _424
REMARK  170  A    between atoms: _427  and  _429
REMARK  171  A    between atoms: _429  and  _430
REMARK  172  A    between atoms: _429  and  _432
REMARK  173  A    between atoms: _432  and  _433
REMARK  174  A    between atoms: _436  and  _438
REMARK  175  A    between atoms: _438  and  _439
REMARK  176  A    between atoms: _441  and  _443
REMARK  177  A    between atoms: _443  and  _444
REMARK  178  A    between atoms: _443  and  _446
REMARK  179  A    between atoms: _449  and  _451
REMARK  180  A    between atoms: _451  and  _452
REMARK  181  A    between atoms: _454  and  _456
REMARK  182  A    between atoms: _456  and  _457
REMARK  183  A    between atoms: _456  and  _459
REMARK  184  A    between atoms: _459  and  _460
REMARK  185  A    between atoms: _463  and  _465
REMARK  186  A    between atoms: _465  and  _466
REMARK  187  A    between atoms: _465  and  _468
REMARK  188  A    between atoms: _468  and  _469
REMARK  189  A    between atoms: _474  and  _476
REMARK  190  A    between atoms: _476  and  _477
REMARK  191  A    between atoms: _476  and  _479
REMARK  192  A    between atoms: _482  and  _484
REMARK  193  A    between atoms: _484  and  _485
REMARK  194  A    between atoms: _484  and  _487
REMARK  195  A    between atoms: _487  and  _488
REMARK  196  A    between atoms: _488  and  _489
REMARK  197  A    between atoms: _494  and  _496
REMARK  198  A    between atoms: _496  and  _497
REMARK  199  A    between atoms: _501  and  _502
REMARK  200  A    between atoms: _507  and  _509
REMARK  201  A    between atoms: _509  and  _510
REMARK  202  A    between atoms: _509  and  _512
REMARK  203  A    between atoms: _512  and  _513
REMARK  204  A    between atoms: _513  and  _514
REMARK  205  A    between atoms: _517  and  _519
REMARK  206  A    between atoms: _519  and  _520
REMARK  207  A    between atoms: _519  and  _522
REMARK  208  A    between atoms: _525  and  _527
REMARK  209  A    between atoms: _527  and  _528
REMARK  210  A    between atoms: _527  and  _530
REMARK  211  A    between atoms: _530  and  _531
REMARK  212  A    between atoms: _535  and  _536
REMARK  213  A    between atoms: _541  and  _543
REMARK  214  A    between atoms: _543  and  _544
REMARK  215  A    between atoms: _543  and  _546
REMARK  216  A    between atoms: _546  and  _547
REMARK  217  A    between atoms: _550  and  _552
REMARK  218  A    between atoms: _552  and  _553
REMARK  219  A    between atoms: _556  and  _558
REMARK  220  A    between atoms: _558  and  _559
REMARK  221  A    between atoms: _558  and  _561
REMARK  222  A    between atoms: _561  and  _562
REMARK  223  A    between atoms: _565  and  _567
REMARK  224  A    between atoms: _567  and  _568
REMARK  225  A    between atoms: _567  and  _570
REMARK  226  A    between atoms: _570  and  _571
REMARK  227  A    between atoms: _573  and  _575
REMARK  228  A    between atoms: _575  and  _576
REMARK  229  A    between atoms: _578  and  _580
REMARK  230  A    between atoms: _580  and  _581
REMARK  231  A    between atoms: _580  and  _583
REMARK  232  A    between atoms: _583  and  _584
REMARK  233  A    between atoms: _587  and  _589
REMARK  234  A    between atoms: _589  and  _590
REMARK  235  A    between atoms: _589  and  _592
REMARK                            x       y       z     vdW  Elec       q    Type
REMARK                         _______ _______ _______ _____ _____    ______ ____
ROOT
ATOM      1  O   HOH     1      -3.313 -13.151   5.477  0.00  0.00    +0.000 OA
ENDROOT
TORSDOF 0
REMARK  Name = ../refined-set-2016/4xtz/4xtz_pocket.pdb
REMARK  235 active torsions:
REMARK  status: ('A' for Active; 'I' for Inactive)
REMARK    1  A    between atoms: _1  and  _3
REMARK    2  A    between atoms: _3  and  _4
REMARK    3  A    between atoms: _3  and  _6
REMARK    4  A    between atoms: _6  and  _7
REMARK    5  A    between atoms: _10  and  _12
REMARK    6  A    between atoms: _12  and  _13
REMARK    7  A    between atoms: _15  and  _17
REMARK    8  A    between atoms: _17  and  _18
REMARK    9  A    between atoms: _17  and  _20
REMARK   10  A    between atoms: _20  and  _21
REMARK   11  A    between atoms: _23  and  _25
REMARK   12  A    between atoms: _25  and  _26
REMARK   13  A    between atoms: _25  and  _28
REMARK   14  A    between atoms: _28  and  _29
REMARK   15  A    between atoms: _32  and  _34
REMARK   16  A    between atoms: _34  and  _35
REMARK   17  A    between atoms: _34  and  _37
REMARK   18  A    between atoms: _37  and  _38
REMARK   19  A    between atoms: _43  and  _45
REMARK   20  A    between atoms: _45  and  _46
REMARK   21  A    between atoms: _49  and  _51
REMARK   22  A    between atoms: _51  and  _52
REMARK   23  A    between atoms: _51  and  _54
REMARK   24  A    between atoms: _54  and  _55
REMARK   25  A    between atoms: _58  and  _60
REMARK   26  A    between atoms: _60  and  _61
REMARK   27  A    between atoms: _60  and  _63
REMARK   28  A    between atoms: _63  and  _64
REMARK   29  A    between atoms: _67  and  _69
REMARK   30  A    between atoms: _69  and  _70
REMARK   31  A    between atoms: _69  and  _72
REMARK   32  A    between atoms: _72  and  _73
REMARK   33  A    between atoms: _76  and  _78
REMARK   34  A    between atoms: _78  and  _79
REMARK   35  A    between atoms: _82  and  _84
REMARK   36  A    between atoms: _84  and  _85
REMARK   37  A    between atoms: _84  and  _87
REMARK   38  A    between atoms: _87  and  _88
REMARK   39  A    between atoms: _88  and  _89
REMARK   40  A    between atoms: _94  and  _96
REMARK   41  A    between atoms: _96  and  _97
REMARK   42  A    between atoms: _96  and  _99
REMARK   43  A    between atoms: _99  and  _100
REMARK   44  A    between atoms: _103  and  _105
REMARK   45  A    between atoms: _105  and  _106
REMARK   46  A    between atoms: _109  and  _111
REMARK   47  A    between atoms: _111  and  _112
REMARK   48  A    between atoms: _114  and  _116
REMARK   49  A    between atoms: _116  and  _117
REMARK   50  A    between atoms: _116  and  _119
REMARK   51  A    between atoms: _119  and  _120
REMARK   52  A    between atoms: _120  and  _121
REMARK   53  A    between atoms: _121  and  _122
REMARK   54  A    between atoms: _131  and  _133
REMARK   55  A    between atoms: _133  and  _134
REMARK   56  A    between atoms: _136  and  _138
REMARK   57  A    between atoms: _138  and  _139
REMARK   58  A    between atoms: _138  and  _141
REMARK   59  A    between atoms: _141  and  _142
REMARK   60  A    between atoms: _142  and  _143
REMARK   61  A    between atoms: _143  and  _144
REMARK   62  A    between atoms: _153  and  _155
REMARK   63  A    between atoms: _155  and  _156
REMARK   64  A    between atoms: _155  and  _158
REMARK   65  A    between atoms: _158  and  _159
REMARK   66  A    between atoms: _164  and  _166
REMARK   67  A    between atoms: _166  and  _167
REMARK   68  A    between atoms: _169  and  _171
REMARK   69  A    between atoms: _171  and  _172
REMARK   70  A    between atoms: _171  and  _174
REMARK   71  A    between atoms: _174  and  _175
REMARK   72  A    between atoms: _175  and  _176
REMARK   73  A    between atoms: _176  and  _177
REMARK   74  A    between atoms: _186  and  _188
REMARK   75  A    between atoms: _188  and  _189
REMARK   76  A    between atoms: _191  and  _193
REMARK   77  A    between atoms: _193  and  _194
REMARK   78  A    between atoms: _193  and  _196
REMARK   79  A    between atoms: _196  and  _197
REMARK   80  A    between atoms: _207  and  _209
REMARK   81  A    between atoms: _209  and  _210
REMARK   82  A    between atoms: _213  and  _215
REMARK   83  A    between atoms: _215  and  _216
REMARK   84  A    between atoms: _219  and  _221
REMARK   85  A    between atoms: _221  and  _222
REMARK   86  A    between atoms: _221  and  _224
REMARK   87  A    between atoms: _224  and  _225
REMARK   88  A    between atoms: _228  and  _230
REMARK   89  A    between atoms: _230  and  _231
REMARK   90  A    between atoms: _230  and  _233
REMARK   91  A    between atoms: _233  and  _234
REMARK   92  A    between atoms: _234  and  _235
REMARK   93  A    between atoms: _240  and  _242
REMARK   94  A    between atoms: _242  and  _243
REMARK   95  A    between atoms: _242  and  _245
REMARK   96  A    between atoms: _245  and  _246
REMARK   97  A    between atoms: _249  and  _251
REMARK   98  A    between atoms: _251  and  _252
REMARK   99  A    between atoms: _251  and  _254
REMARK  100  A    between atoms: _254  and  _255
REMARK  101  A    between atoms: _258  and  _260
REMARK  102  A    between atoms: _260  and  _261
REMARK  103  A    between atoms: _260  and  _263
REMARK  104  A    between atoms: _263  and  _264
REMARK  105  A    between atoms: _267  and  _269
REMARK  106  A    between atoms: _269  and  _270
REMARK  107  A    between atoms: _269  and  _272
REMARK  108  A    between atoms: _272  and  _273
REMARK  109  A    between atoms: _275  and  _277
REMARK  110  A    between atoms: _277  and  _278
REMARK  111  A    between atoms: _277  and  _280
REMARK  112  A    between atoms: _283  and  _285
REMARK  113  A    between atoms: _285  and  _286
REMARK  114  A    between atoms: _285  and  _288
REMARK  115  A    between atoms: _288  and  _289
REMARK  116  A    between atoms: _289  and  _290
REMARK  117  A    between atoms: _290  and  _291
REMARK  118  A    between atoms: _291  and  _292
REMARK  119  A    between atoms: _296  and  _298
REMARK  120  A    between atoms: _298  and  _299
REMARK  121  A    between atoms: _298  and  _301
REMARK  122  A    between atoms: _301  and  _302
REMARK  123  A    between atoms: _313  and  _314
REMARK  124  A    between atoms: _319  and  _321
REMARK  125  A    between atoms: _321  and  _322
REMARK  126  A    between atoms: _321  and  _324
REMARK  127  A    between atoms: _324  and  _325
REMARK  128  A    between atoms: _330  and  _332
REMARK  129  A    between atoms: _332  and  _333
REMARK  130  A    between atoms: _332  and  _335
REMARK  131  A    between atoms: _335  and  _336
REMARK  132  A    between atoms: _339  and  _341
REMARK  133  A    between atoms: _341  and  _342
REMARK  134  A    between atoms: _341  and  _344
REMARK  135  A    between atoms: _347  and  _349
REMARK  136  A    between atoms: _349  and  _350
REMARK  137  A    between atoms: _352  and  _354
REMARK  138  A    between atoms: _354  and  _355
REMARK  139  A    between atoms: _354  and  _357
REMARK  140  A    between atoms: _357  and  _358
REMARK  141  A    between atoms: _358  and  _359
REMARK  142  A    between atoms: _359  and  _360
REMARK  143  A    between atoms: _360  and  _361
REMARK  144  A    between atoms: _365  and  _367
REMARK  145  A    between atoms: _367  and  _368
REMARK  146  A    between atoms: _367  and  _370
REMARK  147  A    between atoms: _370  and  _371
REMARK  148  A    between atoms: _374  and  _376
REMARK  149  A    between atoms: _376  and  _377
REMARK  150  A    between atoms: _380  and  _382
REMARK  151  A    between atoms: _382  and  _383
REMARK  152  A    between atoms: _385  and  _387
REMARK  153  A    between atoms: _387  and  _388
REMARK  154  A    between atoms: _387  and  _390
REMARK  155  A    between atoms: _390  and  _391
REMARK  156  A    between atoms: _394  and  _396
REMARK  157  A    between atoms: _396  and  _397
REMARK  158  A    between atoms: _396  and  _399
REMARK  159  A    between atoms: _399  and  _400
REMARK  160  A    between atoms: _403  and  _405
REMARK  161  A    between atoms: _405  and  _406
REMARK  162  A    between atoms: _409  and  _411
REMARK  163  A    between atoms: _411  and  _412
REMARK  164  A    between atoms: _411  and  _414
REMARK  165  A    between atoms: _414  and  _415
REMARK  166  A    between atoms: _415  and  _416
REMARK  167  A    between atoms: _419  and  _421
REMARK  168  A    between atoms: _421  and  _422
REMARK  169  A    between atoms: _421  and  _424
REMARK  170  A    between atoms: _427  and  _429
REMARK  171  A    between atoms: _429  and  _430
REMARK  172  A    between atoms: _429  and  _432
REMARK  173  A    between atoms: _432  and  _433
REMARK  174  A    between atoms: _436  and  _438
REMARK  175  A    between atoms: _438  and  _439
REMARK  176  A    between atoms: _441  and  _443
REMARK  177  A    between atoms: _443  and  _444
REMARK  178  A    between atoms: _443  and  _446
REMARK  179  A    between atoms: _449  and  _451
REMARK  180  A    between atoms: _451  and  _452
REMARK  181  A    between atoms: _454  and  _456
REMARK  182  A    between atoms: _456  and  _457
REMARK  183  A    between atoms: _456  and  _459
REMARK  184  A    between atoms: _459  and  _460
REMARK  185  A    between atoms: _463  and  _465
REMARK  186  A    between atoms: _465  and  _466
REMARK  187  A    between atoms: _465  and  _468
REMARK  188  A    between atoms: _468  and  _469
REMARK  189  A    between atoms: _474  and  _476
REMARK  190  A    between atoms: _476  and  _477
REMARK  191  A    between atoms: _476  and  _479
REMARK  192  A    between atoms: _482  and  _484
REMARK  193  A    between atoms: _484  and  _485
REMARK  194  A    between atoms: _484  and  _487
REMARK  195  A    between atoms: _487  and  _488
REMARK  196  A    between atoms: _488  and  _489
REMARK  197  A    between atoms: _494  and  _496
REMARK  198  A    between atoms: _496  and  _497
REMARK  199  A    between atoms: _501  and  _502
REMARK  200  A    between atoms: _507  and  _509
REMARK  201  A    between atoms: _509  and  _510
REMARK  202  A    between atoms: _509  and  _512
REMARK  203  A    between atoms: _512  and  _513
REMARK  204  A    between atoms: _513  and  _514
REMARK  205  A    between atoms: _517  and  _519
REMARK  206  A    between atoms: _519  and  _520
REMARK  207  A    between atoms: _519  and  _522
REMARK  208  A    between atoms: _525  and  _527
REMARK  209  A    between atoms: _527  and  _528
REMARK  210  A    between atoms: _527  and  _530
REMARK  211  A    between atoms: _530  and  _531
REMARK  212  A    between atoms: _535  and  _536
REMARK  213  A    between atoms: _541  and  _543
REMARK  214  A    between atoms: _543  and  _544
REMARK  215  A    between atoms: _543  and  _546
REMARK  216  A    between atoms: _546  and  _547
REMARK  217  A    between atoms: _550  and  _552
REMARK  218  A    between atoms: _552  and  _553
REMARK  219  A    between atoms: _556  and  _558
REMARK  220  A    between atoms: _558  and  _559
REMARK  221  A    between atoms: _558  and  _561
REMARK  222  A    between atoms: _561  and  _562
REMARK  223  A    between atoms: _565  and  _567
REMARK  224  A    between atoms: _567  and  _568
REMARK  225  A    between atoms: _567  and  _570
REMARK  226  A    between atoms: _570  and  _571
REMARK  227  A    between atoms: _573  and  _575
REMARK  228  A    between atoms: _575  and  _576
REMARK  229  A    between atoms: _578  and  _580
REMARK  230  A    between atoms: _580  and  _581
REMARK  231  A    between atoms: _580  and  _583
REMARK  232  A    between atoms: _583  and  _584
REMARK  233  A    between atoms: _587  and  _589
REMARK  234  A    between atoms: _589  and  _590
REMARK  235  A    between atoms: _589  and  _592
REMARK                            x       y       z     vdW  Elec       q    Type
REMARK                         _______ _______ _______ _____ _____    ______ ____
ROOT
ATOM      1  O   HOH     1      -4.065  -9.769   0.248  0.00  0.00    +0.000 OA
ENDROOT
TORSDOF 0
REMARK  Name = ../refined-set-2016/4xtz/4xtz_pocket.pdb
REMARK  235 active torsions:
REMARK  status: ('A' for Active; 'I' for Inactive)
REMARK    1  A    between atoms: _1  and  _3
REMARK    2  A    between atoms: _3  and  _4
REMARK    3  A    between atoms: _3  and  _6
REMARK    4  A    between atoms: _6  and  _7
REMARK    5  A    between atoms: _10  and  _12
REMARK    6  A    between atoms: _12  and  _13
REMARK    7  A    between atoms: _15  and  _17
REMARK    8  A    between atoms: _17  and  _18
REMARK    9  A    between atoms: _17  and  _20
REMARK   10  A    between atoms: _20  and  _21
REMARK   11  A    between atoms: _23  and  _25
REMARK   12  A    between atoms: _25  and  _26
REMARK   13  A    between atoms: _25  and  _28
REMARK   14  A    between atoms: _28  and  _29
REMARK   15  A    between atoms: _32  and  _34
REMARK   16  A    between atoms: _34  and  _35
REMARK   17  A    between atoms: _34  and  _37
REMARK   18  A    between atoms: _37  and  _38
REMARK   19  A    between atoms: _43  and  _45
REMARK   20  A    between atoms: _45  and  _46
REMARK   21  A    between atoms: _49  and  _51
REMARK   22  A    between atoms: _51  and  _52
REMARK   23  A    between atoms: _51  and  _54
REMARK   24  A    between atoms: _54  and  _55
REMARK   25  A    between atoms: _58  and  _60
REMARK   26  A    between atoms: _60  and  _61
REMARK   27  A    between atoms: _60  and  _63
REMARK   28  A    between atoms: _63  and  _64
REMARK   29  A    between atoms: _67  and  _69
REMARK   30  A    between atoms: _69  and  _70
REMARK   31  A    between atoms: _69  and  _72
REMARK   32  A    between atoms: _72  and  _73
REMARK   33  A    between atoms: _76  and  _78
REMARK   34  A    between atoms: _78  and  _79
REMARK   35  A    between atoms: _82  and  _84
REMARK   36  A    between atoms: _84  and  _85
REMARK   37  A    between atoms: _84  and  _87
REMARK   38  A    between atoms: _87  and  _88
REMARK   39  A    between atoms: _88  and  _89
REMARK   40  A    between atoms: _94  and  _96
REMARK   41  A    between atoms: _96  and  _97
REMARK   42  A    between atoms: _96  and  _99
REMARK   43  A    between atoms: _99  and  _100
REMARK   44  A    between atoms: _103  and  _105
REMARK   45  A    between atoms: _105  and  _106
REMARK   46  A    between atoms: _109  and  _111
REMARK   47  A    between atoms: _111  and  _112
REMARK   48  A    between atoms: _114  and  _116
REMARK   49  A    between atoms: _116  and  _117
REMARK   50  A    between atoms: _116  and  _119
REMARK   51  A    between atoms: _119  and  _120
REMARK   52  A    between atoms: _120  and  _121
REMARK   53  A    between atoms: _121  and  _122
REMARK   54  A    between atoms: _131  and  _133
REMARK   55  A    between atoms: _133  and  _134
REMARK   56  A    between atoms: _136  and  _138
REMARK   57  A    between atoms: _138  and  _139
REMARK   58  A    between atoms: _138  and  _141
REMARK   59  A    between atoms: _141  and  _142
REMARK   60  A    between atoms: _142  and  _143
REMARK   61  A    between atoms: _143  and  _144
REMARK   62  A    between atoms: _153  and  _155
REMARK   63  A    between atoms: _155  and  _156
REMARK   64  A    between atoms: _155  and  _158
REMARK   65  A    between atoms: _158  and  _159
REMARK   66  A    between atoms: _164  and  _166
REMARK   67  A    between atoms: _166  and  _167
REMARK   68  A    between atoms: _169  and  _171
REMARK   69  A    between atoms: _171  and  _172
REMARK   70  A    between atoms: _171  and  _174
REMARK   71  A    between atoms: _174  and  _175
REMARK   72  A    between atoms: _175  and  _176
REMARK   73  A    between atoms: _176  and  _177
REMARK   74  A    between atoms: _186  and  _188
REMARK   75  A    between atoms: _188  and  _189
REMARK   76  A    between atoms: _191  and  _193
REMARK   77  A    between atoms: _193  and  _194
REMARK   78  A    between atoms: _193  and  _196
REMARK   79  A    between atoms: _196  and  _197
REMARK   80  A    between atoms: _207  and  _209
REMARK   81  A    between atoms: _209  and  _210
REMARK   82  A    between atoms: _213  and  _215
REMARK   83  A    between atoms: _215  and  _216
REMARK   84  A    between atoms: _219  and  _221
REMARK   85  A    between atoms: _221  and  _222
REMARK   86  A    between atoms: _221  and  _224
REMARK   87  A    between atoms: _224  and  _225
REMARK   88  A    between atoms: _228  and  _230
REMARK   89  A    between atoms: _230  and  _231
REMARK   90  A    between atoms: _230  and  _233
REMARK   91  A    between atoms: _233  and  _234
REMARK   92  A    between atoms: _234  and  _235
REMARK   93  A    between atoms: _240  and  _242
REMARK   94  A    between atoms: _242  and  _243
REMARK   95  A    between atoms: _242  and  _245
REMARK   96  A    between atoms: _245  and  _246
REMARK   97  A    between atoms: _249  and  _251
REMARK   98  A    between atoms: _251  and  _252
REMARK   99  A    between atoms: _251  and  _254
REMARK  100  A    between atoms: _254  and  _255
REMARK  101  A    between atoms: _258  and  _260
REMARK  102  A    between atoms: _260  and  _261
REMARK  103  A    between atoms: _260  and  _263
REMARK  104  A    between atoms: _263  and  _264
REMARK  105  A    between atoms: _267  and  _269
REMARK  106  A    between atoms: _269  and  _270
REMARK  107  A    between atoms: _269  and  _272
REMARK  108  A    between atoms: _272  and  _273
REMARK  109  A    between atoms: _275  and  _277
REMARK  110  A    between atoms: _277  and  _278
REMARK  111  A    between atoms: _277  and  _280
REMARK  112  A    between atoms: _283  and  _285
REMARK  113  A    between atoms: _285  and  _286
REMARK  114  A    between atoms: _285  and  _288
REMARK  115  A    between atoms: _288  and  _289
REMARK  116  A    between atoms: _289  and  _290
REMARK  117  A    between atoms: _290  and  _291
REMARK  118  A    between atoms: _291  and  _292
REMARK  119  A    between atoms: _296  and  _298
REMARK  120  A    between atoms: _298  and  _299
REMARK  121  A    between atoms: _298  and  _301
REMARK  122  A    between atoms: _301  and  _302
REMARK  123  A    between atoms: _313  and  _314
REMARK  124  A    between atoms: _319  and  _321
REMARK  125  A    between atoms: _321  and  _322
REMARK  126  A    between atoms: _321  and  _324
REMARK  127  A    between atoms: _324  and  _325
REMARK  128  A    between atoms: _330  and  _332
REMARK  129  A    between atoms: _332  and  _333
REMARK  130  A    between atoms: _332  and  _335
REMARK  131  A    between atoms: _335  and  _336
REMARK  132  A    between atoms: _339  and  _341
REMARK  133  A    between atoms: _341  and  _342
REMARK  134  A    between atoms: _341  and  _344
REMARK  135  A    between atoms: _347  and  _349
REMARK  136  A    between atoms: _349  and  _350
REMARK  137  A    between atoms: _352  and  _354
REMARK  138  A    between atoms: _354  and  _355
REMARK  139  A    between atoms: _354  and  _357
REMARK  140  A    between atoms: _357  and  _358
REMARK  141  A    between atoms: _358  and  _359
REMARK  142  A    between atoms: _359  and  _360
REMARK  143  A    between atoms: _360  and  _361
REMARK  144  A    between atoms: _365  and  _367
REMARK  145  A    between atoms: _367  and  _368
REMARK  146  A    between atoms: _367  and  _370
REMARK  147  A    between atoms: _370  and  _371
REMARK  148  A    between atoms: _374  and  _376
REMARK  149  A    between atoms: _376  and  _377
REMARK  150  A    between atoms: _380  and  _382
REMARK  151  A    between atoms: _382  and  _383
REMARK  152  A    between atoms: _385  and  _387
REMARK  153  A    between atoms: _387  and  _388
REMARK  154  A    between atoms: _387  and  _390
REMARK  155  A    between atoms: _390  and  _391
REMARK  156  A    between atoms: _394  and  _396
REMARK  157  A    between atoms: _396  and  _397
REMARK  158  A    between atoms: _396  and  _399
REMARK  159  A    between atoms: _399  and  _400
REMARK  160  A    between atoms: _403  and  _405
REMARK  161  A    between atoms: _405  and  _406
REMARK  162  A    between atoms: _409  and  _411
REMARK  163  A    between atoms: _411  and  _412
REMARK  164  A    between atoms: _411  and  _414
REMARK  165  A    between atoms: _414  and  _415
REMARK  166  A    between atoms: _415  and  _416
REMARK  167  A    between atoms: _419  and  _421
REMARK  168  A    between atoms: _421  and  _422
REMARK  169  A    between atoms: _421  and  _424
REMARK  170  A    between atoms: _427  and  _429
REMARK  171  A    between atoms: _429  and  _430
REMARK  172  A    between atoms: _429  and  _432
REMARK  173  A    between atoms: _432  and  _433
REMARK  174  A    between atoms: _436  and  _438
REMARK  175  A    between atoms: _438  and  _439
REMARK  176  A    between atoms: _441  and  _443
REMARK  177  A    between atoms: _443  and  _444
REMARK  178  A    between atoms: _443  and  _446
REMARK  179  A    between atoms: _449  and  _451
REMARK  180  A    between atoms: _451  and  _452
REMARK  181  A    between atoms: _454  and  _456
REMARK  182  A    between atoms: _456  and  _457
REMARK  183  A    between atoms: _456  and  _459
REMARK  184  A    between atoms: _459  and  _460
REMARK  185  A    between atoms: _463  and  _465
REMARK  186  A    between atoms: _465  and  _466
REMARK  187  A    between atoms: _465  and  _468
REMARK  188  A    between atoms: _468  and  _469
REMARK  189  A    between atoms: _474  and  _476
REMARK  190  A    between atoms: _476  and  _477
REMARK  191  A    between atoms: _476  and  _479
REMARK  192  A    between atoms: _482  and  _484
REMARK  193  A    between atoms: _484  and  _485
REMARK  194  A    between atoms: _484  and  _487
REMARK  195  A    between atoms: _487  and  _488
REMARK  196  A    between atoms: _488  and  _489
REMARK  197  A    between atoms: _494  and  _496
REMARK  198  A    between atoms: _496  and  _497
REMARK  199  A    between atoms: _501  and  _502
REMARK  200  A    between atoms: _507  and  _509
REMARK  201  A    between atoms: _509  and  _510
REMARK  202  A    between atoms: _509  and  _512
REMARK  203  A    between atoms: _512  and  _513
REMARK  204  A    between atoms: _513  and  _514
REMARK  205  A    between atoms: _517  and  _519
REMARK  206  A    between atoms: _519  and  _520
REMARK  207  A    between atoms: _519  and  _522
REMARK  208  A    between atoms: _525  and  _527
REMARK  209  A    between atoms: _527  and  _528
REMARK  210  A    between atoms: _527  and  _530
REMARK  211  A    between atoms: _530  and  _531
REMARK  212  A    between atoms: _535  and  _536
REMARK  213  A    between atoms: _541  and  _543
REMARK  214  A    between atoms: _543  and  _544
REMARK  215  A    between atoms: _543  and  _546
REMARK  216  A    between atoms: _546  and  _547
REMARK  217  A    between atoms: _550  and  _552
REMARK  218  A    between atoms: _552  and  _553
REMARK  219  A    between atoms: _556  and  _558
REMARK  220  A    between atoms: _558  and  _559
REMARK  221  A    between atoms: _558  and  _561
REMARK  222  A    between atoms: _561  and  _562
REMARK  223  A    between atoms: _565  and  _567
REMARK  224  A    between atoms: _567  and  _568
REMARK  225  A    between atoms: _567  and  _570
REMARK  226  A    between atoms: _570  and  _571
REMARK  227  A    between atoms: _573  and  _575
REMARK  228  A    between atoms: _575  and  _576
REMARK  229  A    between atoms: _578  and  _580
REMARK  230  A    between atoms: _580  and  _581
REMARK  231  A    between atoms: _580  and  _583
REMARK  232  A    between atoms: _583  and  _584
REMARK  233  A    between atoms: _587  and  _589
REMARK  234  A    between atoms: _589  and  _590
REMARK  235  A    between atoms: _589  and  _592
REMARK                            x       y       z     vdW  Elec       q    Type
REMARK                         _______ _______ _______ _____ _____    ______ ____
ROOT
ATOM      1  O   HOH     1       2.105  -1.796  16.623  0.00  0.00    +0.000 OA
ENDROOT
TORSDOF 0
REMARK  Name = ../refined-set-2016/4xtz/4xtz_pocket.pdb
REMARK  235 active torsions:
REMARK  status: ('A' for Active; 'I' for Inactive)
REMARK    1  A    between atoms: _1  and  _3
REMARK    2  A    between atoms: _3  and  _4
REMARK    3  A    between atoms: _3  and  _6
REMARK    4  A    between atoms: _6  and  _7
REMARK    5  A    between atoms: _10  and  _12
REMARK    6  A    between atoms: _12  and  _13
REMARK    7  A    between atoms: _15  and  _17
REMARK    8  A    between atoms: _17  and  _18
REMARK    9  A    between atoms: _17  and  _20
REMARK   10  A    between atoms: _20  and  _21
REMARK   11  A    between atoms: _23  and  _25
REMARK   12  A    between atoms: _25  and  _26
REMARK   13  A    between atoms: _25  and  _28
REMARK   14  A    between atoms: _28  and  _29
REMARK   15  A    between atoms: _32  and  _34
REMARK   16  A    between atoms: _34  and  _35
REMARK   17  A    between atoms: _34  and  _37
REMARK   18  A    between atoms: _37  and  _38
REMARK   19  A    between atoms: _43  and  _45
REMARK   20  A    between atoms: _45  and  _46
REMARK   21  A    between atoms: _49  and  _51
REMARK   22  A    between atoms: _51  and  _52
REMARK   23  A    between atoms: _51  and  _54
REMARK   24  A    between atoms: _54  and  _55
REMARK   25  A    between atoms: _58  and  _60
REMARK   26  A    between atoms: _60  and  _61
REMARK   27  A    between atoms: _60  and  _63
REMARK   28  A    between atoms: _63  and  _64
REMARK   29  A    between atoms: _67  and  _69
REMARK   30  A    between atoms: _69  and  _70
REMARK   31  A    between atoms: _69  and  _72
REMARK   32  A    between atoms: _72  and  _73
REMARK   33  A    between atoms: _76  and  _78
REMARK   34  A    between atoms: _78  and  _79
REMARK   35  A    between atoms: _82  and  _84
REMARK   36  A    between atoms: _84  and  _85
REMARK   37  A    between atoms: _84  and  _87
REMARK   38  A    between atoms: _87  and  _88
REMARK   39  A    between atoms: _88  and  _89
REMARK   40  A    between atoms: _94  and  _96
REMARK   41  A    between atoms: _96  and  _97
REMARK   42  A    between atoms: _96  and  _99
REMARK   43  A    between atoms: _99  and  _100
REMARK   44  A    between atoms: _103  and  _105
REMARK   45  A    between atoms: _105  and  _106
REMARK   46  A    between atoms: _109  and  _111
REMARK   47  A    between atoms: _111  and  _112
REMARK   48  A    between atoms: _114  and  _116
REMARK   49  A    between atoms: _116  and  _117
REMARK   50  A    between atoms: _116  and  _119
REMARK   51  A    between atoms: _119  and  _120
REMARK   52  A    between atoms: _120  and  _121
REMARK   53  A    between atoms: _121  and  _122
REMARK   54  A    between atoms: _131  and  _133
REMARK   55  A    between atoms: _133  and  _134
REMARK   56  A    between atoms: _136  and  _138
REMARK   57  A    between atoms: _138  and  _139
REMARK   58  A    between atoms: _138  and  _141
REMARK   59  A    between atoms: _141  and  _142
REMARK   60  A    between atoms: _142  and  _143
REMARK   61  A    between atoms: _143  and  _144
REMARK   62  A    between atoms: _153  and  _155
REMARK   63  A    between atoms: _155  and  _156
REMARK   64  A    between atoms: _155  and  _158
REMARK   65  A    between atoms: _158  and  _159
REMARK   66  A    between atoms: _164  and  _166
REMARK   67  A    between atoms: _166  and  _167
REMARK   68  A    between atoms: _169  and  _171
REMARK   69  A    between atoms: _171  and  _172
REMARK   70  A    between atoms: _171  and  _174
REMARK   71  A    between atoms: _174  and  _175
REMARK   72  A    between atoms: _175  and  _176
REMARK   73  A    between atoms: _176  and  _177
REMARK   74  A    between atoms: _186  and  _188
REMARK   75  A    between atoms: _188  and  _189
REMARK   76  A    between atoms: _191  and  _193
REMARK   77  A    between atoms: _193  and  _194
REMARK   78  A    between atoms: _193  and  _196
REMARK   79  A    between atoms: _196  and  _197
REMARK   80  A    between atoms: _207  and  _209
REMARK   81  A    between atoms: _209  and  _210
REMARK   82  A    between atoms: _213  and  _215
REMARK   83  A    between atoms: _215  and  _216
REMARK   84  A    between atoms: _219  and  _221
REMARK   85  A    between atoms: _221  and  _222
REMARK   86  A    between atoms: _221  and  _224
REMARK   87  A    between atoms: _224  and  _225
REMARK   88  A    between atoms: _228  and  _230
REMARK   89  A    between atoms: _230  and  _231
REMARK   90  A    between atoms: _230  and  _233
REMARK   91  A    between atoms: _233  and  _234
REMARK   92  A    between atoms: _234  and  _235
REMARK   93  A    between atoms: _240  and  _242
REMARK   94  A    between atoms: _242  and  _243
REMARK   95  A    between atoms: _242  and  _245
REMARK   96  A    between atoms: _245  and  _246
REMARK   97  A    between atoms: _249  and  _251
REMARK   98  A    between atoms: _251  and  _252
REMARK   99  A    between atoms: _251  and  _254
REMARK  100  A    between atoms: _254  and  _255
REMARK  101  A    between atoms: _258  and  _260
REMARK  102  A    between atoms: _260  and  _261
REMARK  103  A    between atoms: _260  and  _263
REMARK  104  A    between atoms: _263  and  _264
REMARK  105  A    between atoms: _267  and  _269
REMARK  106  A    between atoms: _269  and  _270
REMARK  107  A    between atoms: _269  and  _272
REMARK  108  A    between atoms: _272  and  _273
REMARK  109  A    between atoms: _275  and  _277
REMARK  110  A    between atoms: _277  and  _278
REMARK  111  A    between atoms: _277  and  _280
REMARK  112  A    between atoms: _283  and  _285
REMARK  113  A    between atoms: _285  and  _286
REMARK  114  A    between atoms: _285  and  _288
REMARK  115  A    between atoms: _288  and  _289
REMARK  116  A    between atoms: _289  and  _290
REMARK  117  A    between atoms: _290  and  _291
REMARK  118  A    between atoms: _291  and  _292
REMARK  119  A    between atoms: _296  and  _298
REMARK  120  A    between atoms: _298  and  _299
REMARK  121  A    between atoms: _298  and  _301
REMARK  122  A    between atoms: _301  and  _302
REMARK  123  A    between atoms: _313  and  _314
REMARK  124  A    between atoms: _319  and  _321
REMARK  125  A    between atoms: _321  and  _322
REMARK  126  A    between atoms: _321  and  _324
REMARK  127  A    between atoms: _324  and  _325
REMARK  128  A    between atoms: _330  and  _332
REMARK  129  A    between atoms: _332  and  _333
REMARK  130  A    between atoms: _332  and  _335
REMARK  131  A    between atoms: _335  and  _336
REMARK  132  A    between atoms: _339  and  _341
REMARK  133  A    between atoms: _341  and  _342
REMARK  134  A    between atoms: _341  and  _344
REMARK  135  A    between atoms: _347  and  _349
REMARK  136  A    between atoms: _349  and  _350
REMARK  137  A    between atoms: _352  and  _354
REMARK  138  A    between atoms: _354  and  _355
REMARK  139  A    between atoms: _354  and  _357
REMARK  140  A    between atoms: _357  and  _358
REMARK  141  A    between atoms: _358  and  _359
REMARK  142  A    between atoms: _359  and  _360
REMARK  143  A    between atoms: _360  and  _361
REMARK  144  A    between atoms: _365  and  _367
REMARK  145  A    between atoms: _367  and  _368
REMARK  146  A    between atoms: _367  and  _370
REMARK  147  A    between atoms: _370  and  _371
REMARK  148  A    between atoms: _374  and  _376
REMARK  149  A    between atoms: _376  and  _377
REMARK  150  A    between atoms: _380  and  _382
REMARK  151  A    between atoms: _382  and  _383
REMARK  152  A    between atoms: _385  and  _387
REMARK  153  A    between atoms: _387  and  _388
REMARK  154  A    between atoms: _387  and  _390
REMARK  155  A    between atoms: _390  and  _391
REMARK  156  A    between atoms: _394  and  _396
REMARK  157  A    between atoms: _396  and  _397
REMARK  158  A    between atoms: _396  and  _399
REMARK  159  A    between atoms: _399  and  _400
REMARK  160  A    between atoms: _403  and  _405
REMARK  161  A    between atoms: _405  and  _406
REMARK  162  A    between atoms: _409  and  _411
REMARK  163  A    between atoms: _411  and  _412
REMARK  164  A    between atoms: _411  and  _414
REMARK  165  A    between atoms: _414  and  _415
REMARK  166  A    between atoms: _415  and  _416
REMARK  167  A    between atoms: _419  and  _421
REMARK  168  A    between atoms: _421  and  _422
REMARK  169  A    between atoms: _421  and  _424
REMARK  170  A    between atoms: _427  and  _429
REMARK  171  A    between atoms: _429  and  _430
REMARK  172  A    between atoms: _429  and  _432
REMARK  173  A    between atoms: _432  and  _433
REMARK  174  A    between atoms: _436  and  _438
REMARK  175  A    between atoms: _438  and  _439
REMARK  176  A    between atoms: _441  and  _443
REMARK  177  A    between atoms: _443  and  _444
REMARK  178  A    between atoms: _443  and  _446
REMARK  179  A    between atoms: _449  and  _451
REMARK  180  A    between atoms: _451  and  _452
REMARK  181  A    between atoms: _454  and  _456
REMARK  182  A    between atoms: _456  and  _457
REMARK  183  A    between atoms: _456  and  _459
REMARK  184  A    between atoms: _459  and  _460
REMARK  185  A    between atoms: _463  and  _465
REMARK  186  A    between atoms: _465  and  _466
REMARK  187  A    between atoms: _465  and  _468
REMARK  188  A    between atoms: _468  and  _469
REMARK  189  A    between atoms: _474  and  _476
REMARK  190  A    between atoms: _476  and  _477
REMARK  191  A    between atoms: _476  and  _479
REMARK  192  A    between atoms: _482  and  _484
REMARK  193  A    between atoms: _484  and  _485
REMARK  194  A    between atoms: _484  and  _487
REMARK  195  A    between atoms: _487  and  _488
REMARK  196  A    between atoms: _488  and  _489
REMARK  197  A    between atoms: _494  and  _496
REMARK  198  A    between atoms: _496  and  _497
REMARK  199  A    between atoms: _501  and  _502
REMARK  200  A    between atoms: _507  and  _509
REMARK  201  A    between atoms: _509  and  _510
REMARK  202  A    between atoms: _509  and  _512
REMARK  203  A    between atoms: _512  and  _513
REMARK  204  A    between atoms: _513  and  _514
REMARK  205  A    between atoms: _517  and  _519
REMARK  206  A    between atoms: _519  and  _520
REMARK  207  A    between atoms: _519  and  _522
REMARK  208  A    between atoms: _525  and  _527
REMARK  209  A    between atoms: _527  and  _528
REMARK  210  A    between atoms: _527  and  _530
REMARK  211  A    between atoms: _530  and  _531
REMARK  212  A    between atoms: _535  and  _536
REMARK  213  A    between atoms: _541  and  _543
REMARK  214  A    between atoms: _543  and  _544
REMARK  215  A    between atoms: _543  and  _546
REMARK  216  A    between atoms: _546  and  _547
REMARK  217  A    between atoms: _550  and  _552
REMARK  218  A    between atoms: _552  and  _553
REMARK  219  A    between atoms: _556  and  _558
REMARK  220  A    between atoms: _558  and  _559
REMARK  221  A    between atoms: _558  and  _561
REMARK  222  A    between atoms: _561  and  _562
REMARK  223  A    between atoms: _565  and  _567
REMARK  224  A    between atoms: _567  and  _568
REMARK  225  A    between atoms: _567  and  _570
REMARK  226  A    between atoms: _570  and  _571
REMARK  227  A    between atoms: _573  and  _575
REMARK  228  A    between atoms: _575  and  _576
REMARK  229  A    between atoms: _578  and  _580
REMARK  230  A    between atoms: _580  and  _581
REMARK  231  A    between atoms: _580  and  _583
REMARK  232  A    between atoms: _583  and  _584
REMARK  233  A    between atoms: _587  and  _589
REMARK  234  A    between atoms: _589  and  _590
REMARK  235  A    between atoms: _589  and  _592
REMARK                            x       y       z     vdW  Elec       q    Type
REMARK                         _______ _______ _______ _____ _____    ______ ____
ROOT
ATOM      1  O   HOH     1       0.906  -0.783  18.543  0.00  0.00    +0.000 OA
ENDROOT
TORSDOF 0
REMARK  Name = ../refined-set-2016/4xtz/4xtz_pocket.pdb
REMARK  235 active torsions:
REMARK  status: ('A' for Active; 'I' for Inactive)
REMARK    1  A    between atoms: _1  and  _3
REMARK    2  A    between atoms: _3  and  _4
REMARK    3  A    between atoms: _3  and  _6
REMARK    4  A    between atoms: _6  and  _7
REMARK    5  A    between atoms: _10  and  _12
REMARK    6  A    between atoms: _12  and  _13
REMARK    7  A    between atoms: _15  and  _17
REMARK    8  A    between atoms: _17  and  _18
REMARK    9  A    between atoms: _17  and  _20
REMARK   10  A    between atoms: _20  and  _21
REMARK   11  A    between atoms: _23  and  _25
REMARK   12  A    between atoms: _25  and  _26
REMARK   13  A    between atoms: _25  and  _28
REMARK   14  A    between atoms: _28  and  _29
REMARK   15  A    between atoms: _32  and  _34
REMARK   16  A    between atoms: _34  and  _35
REMARK   17  A    between atoms: _34  and  _37
REMARK   18  A    between atoms: _37  and  _38
REMARK   19  A    between atoms: _43  and  _45
REMARK   20  A    between atoms: _45  and  _46
REMARK   21  A    between atoms: _49  and  _51
REMARK   22  A    between atoms: _51  and  _52
REMARK   23  A    between atoms: _51  and  _54
REMARK   24  A    between atoms: _54  and  _55
REMARK   25  A    between atoms: _58  and  _60
REMARK   26  A    between atoms: _60  and  _61
REMARK   27  A    between atoms: _60  and  _63
REMARK   28  A    between atoms: _63  and  _64
REMARK   29  A    between atoms: _67  and  _69
REMARK   30  A    between atoms: _69  and  _70
REMARK   31  A    between atoms: _69  and  _72
REMARK   32  A    between atoms: _72  and  _73
REMARK   33  A    between atoms: _76  and  _78
REMARK   34  A    between atoms: _78  and  _79
REMARK   35  A    between atoms: _82  and  _84
REMARK   36  A    between atoms: _84  and  _85
REMARK   37  A    between atoms: _84  and  _87
REMARK   38  A    between atoms: _87  and  _88
REMARK   39  A    between atoms: _88  and  _89
REMARK   40  A    between atoms: _94  and  _96
REMARK   41  A    between atoms: _96  and  _97
REMARK   42  A    between atoms: _96  and  _99
REMARK   43  A    between atoms: _99  and  _100
REMARK   44  A    between atoms: _103  and  _105
REMARK   45  A    between atoms: _105  and  _106
REMARK   46  A    between atoms: _109  and  _111
REMARK   47  A    between atoms: _111  and  _112
REMARK   48  A    between atoms: _114  and  _116
REMARK   49  A    between atoms: _116  and  _117
REMARK   50  A    between atoms: _116  and  _119
REMARK   51  A    between atoms: _119  and  _120
REMARK   52  A    between atoms: _120  and  _121
REMARK   53  A    between atoms: _121  and  _122
REMARK   54  A    between atoms: _131  and  _133
REMARK   55  A    between atoms: _133  and  _134
REMARK   56  A    between atoms: _136  and  _138
REMARK   57  A    between atoms: _138  and  _139
REMARK   58  A    between atoms: _138  and  _141
REMARK   59  A    between atoms: _141  and  _142
REMARK   60  A    between atoms: _142  and  _143
REMARK   61  A    between atoms: _143  and  _144
REMARK   62  A    between atoms: _153  and  _155
REMARK   63  A    between atoms: _155  and  _156
REMARK   64  A    between atoms: _155  and  _158
REMARK   65  A    between atoms: _158  and  _159
REMARK   66  A    between atoms: _164  and  _166
REMARK   67  A    between atoms: _166  and  _167
REMARK   68  A    between atoms: _169  and  _171
REMARK   69  A    between atoms: _171  and  _172
REMARK   70  A    between atoms: _171  and  _174
REMARK   71  A    between atoms: _174  and  _175
REMARK   72  A    between atoms: _175  and  _176
REMARK   73  A    between atoms: _176  and  _177
REMARK   74  A    between atoms: _186  and  _188
REMARK   75  A    between atoms: _188  and  _189
REMARK   76  A    between atoms: _191  and  _193
REMARK   77  A    between atoms: _193  and  _194
REMARK   78  A    between atoms: _193  and  _196
REMARK   79  A    between atoms: _196  and  _197
REMARK   80  A    between atoms: _207  and  _209
REMARK   81  A    between atoms: _209  and  _210
REMARK   82  A    between atoms: _213  and  _215
REMARK   83  A    between atoms: _215  and  _216
REMARK   84  A    between atoms: _219  and  _221
REMARK   85  A    between atoms: _221  and  _222
REMARK   86  A    between atoms: _221  and  _224
REMARK   87  A    between atoms: _224  and  _225
REMARK   88  A    between atoms: _228  and  _230
REMARK   89  A    between atoms: _230  and  _231
REMARK   90  A    between atoms: _230  and  _233
REMARK   91  A    between atoms: _233  and  _234
REMARK   92  A    between atoms: _234  and  _235
REMARK   93  A    between atoms: _240  and  _242
REMARK   94  A    between atoms: _242  and  _243
REMARK   95  A    between atoms: _242  and  _245
REMARK   96  A    between atoms: _245  and  _246
REMARK   97  A    between atoms: _249  and  _251
REMARK   98  A    between atoms: _251  and  _252
REMARK   99  A    between atoms: _251  and  _254
REMARK  100  A    between atoms: _254  and  _255
REMARK  101  A    between atoms: _258  and  _260
REMARK  102  A    between atoms: _260  and  _261
REMARK  103  A    between atoms: _260  and  _263
REMARK  104  A    between atoms: _263  and  _264
REMARK  105  A    between atoms: _267  and  _269
REMARK  106  A    between atoms: _269  and  _270
REMARK  107  A    between atoms: _269  and  _272
REMARK  108  A    between atoms: _272  and  _273
REMARK  109  A    between atoms: _275  and  _277
REMARK  110  A    between atoms: _277  and  _278
REMARK  111  A    between atoms: _277  and  _280
REMARK  112  A    between atoms: _283  and  _285
REMARK  113  A    between atoms: _285  and  _286
REMARK  114  A    between atoms: _285  and  _288
REMARK  115  A    between atoms: _288  and  _289
REMARK  116  A    between atoms: _289  and  _290
REMARK  117  A    between atoms: _290  and  _291
REMARK  118  A    between atoms: _291  and  _292
REMARK  119  A    between atoms: _296  and  _298
REMARK  120  A    between atoms: _298  and  _299
REMARK  121  A    between atoms: _298  and  _301
REMARK  122  A    between atoms: _301  and  _302
REMARK  123  A    between atoms: _313  and  _314
REMARK  124  A    between atoms: _319  and  _321
REMARK  125  A    between atoms: _321  and  _322
REMARK  126  A    between atoms: _321  and  _324
REMARK  127  A    between atoms: _324  and  _325
REMARK  128  A    between atoms: _330  and  _332
REMARK  129  A    between atoms: _332  and  _333
REMARK  130  A    between atoms: _332  and  _335
REMARK  131  A    between atoms: _335  and  _336
REMARK  132  A    between atoms: _339  and  _341
REMARK  133  A    between atoms: _341  and  _342
REMARK  134  A    between atoms: _341  and  _344
REMARK  135  A    between atoms: _347  and  _349
REMARK  136  A    between atoms: _349  and  _350
REMARK  137  A    between atoms: _352  and  _354
REMARK  138  A    between atoms: _354  and  _355
REMARK  139  A    between atoms: _354  and  _357
REMARK  140  A    between atoms: _357  and  _358
REMARK  141  A    between atoms: _358  and  _359
REMARK  142  A    between atoms: _359  and  _360
REMARK  143  A    between atoms: _360  and  _361
REMARK  144  A    between atoms: _365  and  _367
REMARK  145  A    between atoms: _367  and  _368
REMARK  146  A    between atoms: _367  and  _370
REMARK  147  A    between atoms: _370  and  _371
REMARK  148  A    between atoms: _374  and  _376
REMARK  149  A    between atoms: _376  and  _377
REMARK  150  A    between atoms: _380  and  _382
REMARK  151  A    between atoms: _382  and  _383
REMARK  152  A    between atoms: _385  and  _387
REMARK  153  A    between atoms: _387  and  _388
REMARK  154  A    between atoms: _387  and  _390
REMARK  155  A    between atoms: _390  and  _391
REMARK  156  A    between atoms: _394  and  _396
REMARK  157  A    between atoms: _396  and  _397
REMARK  158  A    between atoms: _396  and  _399
REMARK  159  A    between atoms: _399  and  _400
REMARK  160  A    between atoms: _403  and  _405
REMARK  161  A    between atoms: _405  and  _406
REMARK  162  A    between atoms: _409  and  _411
REMARK  163  A    between atoms: _411  and  _412
REMARK  164  A    between atoms: _411  and  _414
REMARK  165  A    between atoms: _414  and  _415
REMARK  166  A    between atoms: _415  and  _416
REMARK  167  A    between atoms: _419  and  _421
REMARK  168  A    between atoms: _421  and  _422
REMARK  169  A    between atoms: _421  and  _424
REMARK  170  A    between atoms: _427  and  _429
REMARK  171  A    between atoms: _429  and  _430
REMARK  172  A    between atoms: _429  and  _432
REMARK  173  A    between atoms: _432  and  _433
REMARK  174  A    between atoms: _436  and  _438
REMARK  175  A    between atoms: _438  and  _439
REMARK  176  A    between atoms: _441  and  _443
REMARK  177  A    between atoms: _443  and  _444
REMARK  178  A    between atoms: _443  and  _446
REMARK  179  A    between atoms: _449  and  _451
REMARK  180  A    between atoms: _451  and  _452
REMARK  181  A    between atoms: _454  and  _456
REMARK  182  A    between atoms: _456  and  _457
REMARK  183  A    between atoms: _456  and  _459
REMARK  184  A    between atoms: _459  and  _460
REMARK  185  A    between atoms: _463  and  _465
REMARK  186  A    between atoms: _465  and  _466
REMARK  187  A    between atoms: _465  and  _468
REMARK  188  A    between atoms: _468  and  _469
REMARK  189  A    between atoms: _474  and  _476
REMARK  190  A    between atoms: _476  and  _477
REMARK  191  A    between atoms: _476  and  _479
REMARK  192  A    between atoms: _482  and  _484
REMARK  193  A    between atoms: _484  and  _485
REMARK  194  A    between atoms: _484  and  _487
REMARK  195  A    between atoms: _487  and  _488
REMARK  196  A    between atoms: _488  and  _489
REMARK  197  A    between atoms: _494  and  _496
REMARK  198  A    between atoms: _496  and  _497
REMARK  199  A    between atoms: _501  and  _502
REMARK  200  A    between atoms: _507  and  _509
REMARK  201  A    between atoms: _509  and  _510
REMARK  202  A    between atoms: _509  and  _512
REMARK  203  A    between atoms: _512  and  _513
REMARK  204  A    between atoms: _513  and  _514
REMARK  205  A    between atoms: _517  and  _519
REMARK  206  A    between atoms: _519  and  _520
REMARK  207  A    between atoms: _519  and  _522
REMARK  208  A    between atoms: _525  and  _527
REMARK  209  A    between atoms: _527  and  _528
REMARK  210  A    between atoms: _527  and  _530
REMARK  211  A    between atoms: _530  and  _531
REMARK  212  A    between atoms: _535  and  _536
REMARK  213  A    between atoms: _541  and  _543
REMARK  214  A    between atoms: _543  and  _544
REMARK  215  A    between atoms: _543  and  _546
REMARK  216  A    between atoms: _546  and  _547
REMARK  217  A    between atoms: _550  and  _552
REMARK  218  A    between atoms: _552  and  _553
REMARK  219  A    between atoms: _556  and  _558
REMARK  220  A    between atoms: _558  and  _559
REMARK  221  A    between atoms: _558  and  _561
REMARK  222  A    between atoms: _561  and  _562
REMARK  223  A    between atoms: _565  and  _567
REMARK  224  A    between atoms: _567  and  _568
REMARK  225  A    between atoms: _567  and  _570
REMARK  226  A    between atoms: _570  and  _571
REMARK  227  A    between atoms: _573  and  _575
REMARK  228  A    between atoms: _575  and  _576
REMARK  229  A    between atoms: _578  and  _580
REMARK  230  A    between atoms: _580  and  _581
REMARK  231  A    between atoms: _580  and  _583
REMARK  232  A    between atoms: _583  and  _584
REMARK  233  A    between atoms: _587  and  _589
REMARK  234  A    between atoms: _589  and  _590
REMARK  235  A    between atoms: _589  and  _592
REMARK                            x       y       z     vdW  Elec       q    Type
REMARK                         _______ _______ _______ _____ _____    ______ ____
ROOT
ATOM      1  O   HOH     1       0.556   0.297   8.371  0.00  0.00    +0.000 OA
ENDROOT
TORSDOF 0
REMARK  Name = ../refined-set-2016/4xtz/4xtz_pocket.pdb
REMARK  235 active torsions:
REMARK  status: ('A' for Active; 'I' for Inactive)
REMARK    1  A    between atoms: _1  and  _3
REMARK    2  A    between atoms: _3  and  _4
REMARK    3  A    between atoms: _3  and  _6
REMARK    4  A    between atoms: _6  and  _7
REMARK    5  A    between atoms: _10  and  _12
REMARK    6  A    between atoms: _12  and  _13
REMARK    7  A    between atoms: _15  and  _17
REMARK    8  A    between atoms: _17  and  _18
REMARK    9  A    between atoms: _17  and  _20
REMARK   10  A    between atoms: _20  and  _21
REMARK   11  A    between atoms: _23  and  _25
REMARK   12  A    between atoms: _25  and  _26
REMARK   13  A    between atoms: _25  and  _28
REMARK   14  A    between atoms: _28  and  _29
REMARK   15  A    between atoms: _32  and  _34
REMARK   16  A    between atoms: _34  and  _35
REMARK   17  A    between atoms: _34  and  _37
REMARK   18  A    between atoms: _37  and  _38
REMARK   19  A    between atoms: _43  and  _45
REMARK   20  A    between atoms: _45  and  _46
REMARK   21  A    between atoms: _49  and  _51
REMARK   22  A    between atoms: _51  and  _52
REMARK   23  A    between atoms: _51  and  _54
REMARK   24  A    between atoms: _54  and  _55
REMARK   25  A    between atoms: _58  and  _60
REMARK   26  A    between atoms: _60  and  _61
REMARK   27  A    between atoms: _60  and  _63
REMARK   28  A    between atoms: _63  and  _64
REMARK   29  A    between atoms: _67  and  _69
REMARK   30  A    between atoms: _69  and  _70
REMARK   31  A    between atoms: _69  and  _72
REMARK   32  A    between atoms: _72  and  _73
REMARK   33  A    between atoms: _76  and  _78
REMARK   34  A    between atoms: _78  and  _79
REMARK   35  A    between atoms: _82  and  _84
REMARK   36  A    between atoms: _84  and  _85
REMARK   37  A    between atoms: _84  and  _87
REMARK   38  A    between atoms: _87  and  _88
REMARK   39  A    between atoms: _88  and  _89
REMARK   40  A    between atoms: _94  and  _96
REMARK   41  A    between atoms: _96  and  _97
REMARK   42  A    between atoms: _96  and  _99
REMARK   43  A    between atoms: _99  and  _100
REMARK   44  A    between atoms: _103  and  _105
REMARK   45  A    between atoms: _105  and  _106
REMARK   46  A    between atoms: _109  and  _111
REMARK   47  A    between atoms: _111  and  _112
REMARK   48  A    between atoms: _114  and  _116
REMARK   49  A    between atoms: _116  and  _117
REMARK   50  A    between atoms: _116  and  _119
REMARK   51  A    between atoms: _119  and  _120
REMARK   52  A    between atoms: _120  and  _121
REMARK   53  A    between atoms: _121  and  _122
REMARK   54  A    between atoms: _131  and  _133
REMARK   55  A    between atoms: _133  and  _134
REMARK   56  A    between atoms: _136  and  _138
REMARK   57  A    between atoms: _138  and  _139
REMARK   58  A    between atoms: _138  and  _141
REMARK   59  A    between atoms: _141  and  _142
REMARK   60  A    between atoms: _142  and  _143
REMARK   61  A    between atoms: _143  and  _144
REMARK   62  A    between atoms: _153  and  _155
REMARK   63  A    between atoms: _155  and  _156
REMARK   64  A    between atoms: _155  and  _158
REMARK   65  A    between atoms: _158  and  _159
REMARK   66  A    between atoms: _164  and  _166
REMARK   67  A    between atoms: _166  and  _167
REMARK   68  A    between atoms: _169  and  _171
REMARK   69  A    between atoms: _171  and  _172
REMARK   70  A    between atoms: _171  and  _174
REMARK   71  A    between atoms: _174  and  _175
REMARK   72  A    between atoms: _175  and  _176
REMARK   73  A    between atoms: _176  and  _177
REMARK   74  A    between atoms: _186  and  _188
REMARK   75  A    between atoms: _188  and  _189
REMARK   76  A    between atoms: _191  and  _193
REMARK   77  A    between atoms: _193  and  _194
REMARK   78  A    between atoms: _193  and  _196
REMARK   79  A    between atoms: _196  and  _197
REMARK   80  A    between atoms: _207  and  _209
REMARK   81  A    between atoms: _209  and  _210
REMARK   82  A    between atoms: _213  and  _215
REMARK   83  A    between atoms: _215  and  _216
REMARK   84  A    between atoms: _219  and  _221
REMARK   85  A    between atoms: _221  and  _222
REMARK   86  A    between atoms: _221  and  _224
REMARK   87  A    between atoms: _224  and  _225
REMARK   88  A    between atoms: _228  and  _230
REMARK   89  A    between atoms: _230  and  _231
REMARK   90  A    between atoms: _230  and  _233
REMARK   91  A    between atoms: _233  and  _234
REMARK   92  A    between atoms: _234  and  _235
REMARK   93  A    between atoms: _240  and  _242
REMARK   94  A    between atoms: _242  and  _243
REMARK   95  A    between atoms: _242  and  _245
REMARK   96  A    between atoms: _245  and  _246
REMARK   97  A    between atoms: _249  and  _251
REMARK   98  A    between atoms: _251  and  _252
REMARK   99  A    between atoms: _251  and  _254
REMARK  100  A    between atoms: _254  and  _255
REMARK  101  A    between atoms: _258  and  _260
REMARK  102  A    between atoms: _260  and  _261
REMARK  103  A    between atoms: _260  and  _263
REMARK  104  A    between atoms: _263  and  _264
REMARK  105  A    between atoms: _267  and  _269
REMARK  106  A    between atoms: _269  and  _270
REMARK  107  A    between atoms: _269  and  _272
REMARK  108  A    between atoms: _272  and  _273
REMARK  109  A    between atoms: _275  and  _277
REMARK  110  A    between atoms: _277  and  _278
REMARK  111  A    between atoms: _277  and  _280
REMARK  112  A    between atoms: _283  and  _285
REMARK  113  A    between atoms: _285  and  _286
REMARK  114  A    between atoms: _285  and  _288
REMARK  115  A    between atoms: _288  and  _289
REMARK  116  A    between atoms: _289  and  _290
REMARK  117  A    between atoms: _290  and  _291
REMARK  118  A    between atoms: _291  and  _292
REMARK  119  A    between atoms: _296  and  _298
REMARK  120  A    between atoms: _298  and  _299
REMARK  121  A    between atoms: _298  and  _301
REMARK  122  A    between atoms: _301  and  _302
REMARK  123  A    between atoms: _313  and  _314
REMARK  124  A    between atoms: _319  and  _321
REMARK  125  A    between atoms: _321  and  _322
REMARK  126  A    between atoms: _321  and  _324
REMARK  127  A    between atoms: _324  and  _325
REMARK  128  A    between atoms: _330  and  _332
REMARK  129  A    between atoms: _332  and  _333
REMARK  130  A    between atoms: _332  and  _335
REMARK  131  A    between atoms: _335  and  _336
REMARK  132  A    between atoms: _339  and  _341
REMARK  133  A    between atoms: _341  and  _342
REMARK  134  A    between atoms: _341  and  _344
REMARK  135  A    between atoms: _347  and  _349
REMARK  136  A    between atoms: _349  and  _350
REMARK  137  A    between atoms: _352  and  _354
REMARK  138  A    between atoms: _354  and  _355
REMARK  139  A    between atoms: _354  and  _357
REMARK  140  A    between atoms: _357  and  _358
REMARK  141  A    between atoms: _358  and  _359
REMARK  142  A    between atoms: _359  and  _360
REMARK  143  A    between atoms: _360  and  _361
REMARK  144  A    between atoms: _365  and  _367
REMARK  145  A    between atoms: _367  and  _368
REMARK  146  A    between atoms: _367  and  _370
REMARK  147  A    between atoms: _370  and  _371
REMARK  148  A    between atoms: _374  and  _376
REMARK  149  A    between atoms: _376  and  _377
REMARK  150  A    between atoms: _380  and  _382
REMARK  151  A    between atoms: _382  and  _383
REMARK  152  A    between atoms: _385  and  _387
REMARK  153  A    between atoms: _387  and  _388
REMARK  154  A    between atoms: _387  and  _390
REMARK  155  A    between atoms: _390  and  _391
REMARK  156  A    between atoms: _394  and  _396
REMARK  157  A    between atoms: _396  and  _397
REMARK  158  A    between atoms: _396  and  _399
REMARK  159  A    between atoms: _399  and  _400
REMARK  160  A    between atoms: _403  and  _405
REMARK  161  A    between atoms: _405  and  _406
REMARK  162  A    between atoms: _409  and  _411
REMARK  163  A    between atoms: _411  and  _412
REMARK  164  A    between atoms: _411  and  _414
REMARK  165  A    between atoms: _414  and  _415
REMARK  166  A    between atoms: _415  and  _416
REMARK  167  A    between atoms: _419  and  _421
REMARK  168  A    between atoms: _421  and  _422
REMARK  169  A    between atoms: _421  and  _424
REMARK  170  A    between atoms: _427  and  _429
REMARK  171  A    between atoms: _429  and  _430
REMARK  172  A    between atoms: _429  and  _432
REMARK  173  A    between atoms: _432  and  _433
REMARK  174  A    between atoms: _436  and  _438
REMARK  175  A    between atoms: _438  and  _439
REMARK  176  A    between atoms: _441  and  _443
REMARK  177  A    between atoms: _443  and  _444
REMARK  178  A    between atoms: _443  and  _446
REMARK  179  A    between atoms: _449  and  _451
REMARK  180  A    between atoms: _451  and  _452
REMARK  181  A    between atoms: _454  and  _456
REMARK  182  A    between atoms: _456  and  _457
REMARK  183  A    between atoms: _456  and  _459
REMARK  184  A    between atoms: _459  and  _460
REMARK  185  A    between atoms: _463  and  _465
REMARK  186  A    between atoms: _465  and  _466
REMARK  187  A    between atoms: _465  and  _468
REMARK  188  A    between atoms: _468  and  _469
REMARK  189  A    between atoms: _474  and  _476
REMARK  190  A    between atoms: _476  and  _477
REMARK  191  A    between atoms: _476  and  _479
REMARK  192  A    between atoms: _482  and  _484
REMARK  193  A    between atoms: _484  and  _485
REMARK  194  A    between atoms: _484  and  _487
REMARK  195  A    between atoms: _487  and  _488
REMARK  196  A    between atoms: _488  and  _489
REMARK  197  A    between atoms: _494  and  _496
REMARK  198  A    between atoms: _496  and  _497
REMARK  199  A    between atoms: _501  and  _502
REMARK  200  A    between atoms: _507  and  _509
REMARK  201  A    between atoms: _509  and  _510
REMARK  202  A    between atoms: _509  and  _512
REMARK  203  A    between atoms: _512  and  _513
REMARK  204  A    between atoms: _513  and  _514
REMARK  205  A    between atoms: _517  and  _519
REMARK  206  A    between atoms: _519  and  _520
REMARK  207  A    between atoms: _519  and  _522
REMARK  208  A    between atoms: _525  and  _527
REMARK  209  A    between atoms: _527  and  _528
REMARK  210  A    between atoms: _527  and  _530
REMARK  211  A    between atoms: _530  and  _531
REMARK  212  A    between atoms: _535  and  _536
REMARK  213  A    between atoms: _541  and  _543
REMARK  214  A    between atoms: _543  and  _544
REMARK  215  A    between atoms: _543  and  _546
REMARK  216  A    between atoms: _546  and  _547
REMARK  217  A    between atoms: _550  and  _552
REMARK  218  A    between atoms: _552  and  _553
REMARK  219  A    between atoms: _556  and  _558
REMARK  220  A    between atoms: _558  and  _559
REMARK  221  A    between atoms: _558  and  _561
REMARK  222  A    between atoms: _561  and  _562
REMARK  223  A    between atoms: _565  and  _567
REMARK  224  A    between atoms: _567  and  _568
REMARK  225  A    between atoms: _567  and  _570
REMARK  226  A    between atoms: _570  and  _571
REMARK  227  A    between atoms: _573  and  _575
REMARK  228  A    between atoms: _575  and  _576
REMARK  229  A    between atoms: _578  and  _580
REMARK  230  A    between atoms: _580  and  _581
REMARK  231  A    between atoms: _580  and  _583
REMARK  232  A    between atoms: _583  and  _584
REMARK  233  A    between atoms: _587  and  _589
REMARK  234  A    between atoms: _589  and  _590
REMARK  235  A    between atoms: _589  and  _592
REMARK                            x       y       z     vdW  Elec       q    Type
REMARK                         _______ _______ _______ _____ _____    ______ ____
ROOT
ATOM      1  O   HOH     1      -1.797  -4.488  -2.387  0.00  0.00    +0.000 OA
ENDROOT
TORSDOF 0
REMARK  Name = ../refined-set-2016/4xtz/4xtz_pocket.pdb
REMARK  235 active torsions:
REMARK  status: ('A' for Active; 'I' for Inactive)
REMARK    1  A    between atoms: _1  and  _3
REMARK    2  A    between atoms: _3  and  _4
REMARK    3  A    between atoms: _3  and  _6
REMARK    4  A    between atoms: _6  and  _7
REMARK    5  A    between atoms: _10  and  _12
REMARK    6  A    between atoms: _12  and  _13
REMARK    7  A    between atoms: _15  and  _17
REMARK    8  A    between atoms: _17  and  _18
REMARK    9  A    between atoms: _17  and  _20
REMARK   10  A    between atoms: _20  and  _21
REMARK   11  A    between atoms: _23  and  _25
REMARK   12  A    between atoms: _25  and  _26
REMARK   13  A    between atoms: _25  and  _28
REMARK   14  A    between atoms: _28  and  _29
REMARK   15  A    between atoms: _32  and  _34
REMARK   16  A    between atoms: _34  and  _35
REMARK   17  A    between atoms: _34  and  _37
REMARK   18  A    between atoms: _37  and  _38
REMARK   19  A    between atoms: _43  and  _45
REMARK   20  A    between atoms: _45  and  _46
REMARK   21  A    between atoms: _49  and  _51
REMARK   22  A    between atoms: _51  and  _52
REMARK   23  A    between atoms: _51  and  _54
REMARK   24  A    between atoms: _54  and  _55
REMARK   25  A    between atoms: _58  and  _60
REMARK   26  A    between atoms: _60  and  _61
REMARK   27  A    between atoms: _60  and  _63
REMARK   28  A    between atoms: _63  and  _64
REMARK   29  A    between atoms: _67  and  _69
REMARK   30  A    between atoms: _69  and  _70
REMARK   31  A    between atoms: _69  and  _72
REMARK   32  A    between atoms: _72  and  _73
REMARK   33  A    between atoms: _76  and  _78
REMARK   34  A    between atoms: _78  and  _79
REMARK   35  A    between atoms: _82  and  _84
REMARK   36  A    between atoms: _84  and  _85
REMARK   37  A    between atoms: _84  and  _87
REMARK   38  A    between atoms: _87  and  _88
REMARK   39  A    between atoms: _88  and  _89
REMARK   40  A    between atoms: _94  and  _96
REMARK   41  A    between atoms: _96  and  _97
REMARK   42  A    between atoms: _96  and  _99
REMARK   43  A    between atoms: _99  and  _100
REMARK   44  A    between atoms: _103  and  _105
REMARK   45  A    between atoms: _105  and  _106
REMARK   46  A    between atoms: _109  and  _111
REMARK   47  A    between atoms: _111  and  _112
REMARK   48  A    between atoms: _114  and  _116
REMARK   49  A    between atoms: _116  and  _117
REMARK   50  A    between atoms: _116  and  _119
REMARK   51  A    between atoms: _119  and  _120
REMARK   52  A    between atoms: _120  and  _121
REMARK   53  A    between atoms: _121  and  _122
REMARK   54  A    between atoms: _131  and  _133
REMARK   55  A    between atoms: _133  and  _134
REMARK   56  A    between atoms: _136  and  _138
REMARK   57  A    between atoms: _138  and  _139
REMARK   58  A    between atoms: _138  and  _141
REMARK   59  A    between atoms: _141  and  _142
REMARK   60  A    between atoms: _142  and  _143
REMARK   61  A    between atoms: _143  and  _144
REMARK   62  A    between atoms: _153  and  _155
REMARK   63  A    between atoms: _155  and  _156
REMARK   64  A    between atoms: _155  and  _158
REMARK   65  A    between atoms: _158  and  _159
REMARK   66  A    between atoms: _164  and  _166
REMARK   67  A    between atoms: _166  and  _167
REMARK   68  A    between atoms: _169  and  _171
REMARK   69  A    between atoms: _171  and  _172
REMARK   70  A    between atoms: _171  and  _174
REMARK   71  A    between atoms: _174  and  _175
REMARK   72  A    between atoms: _175  and  _176
REMARK   73  A    between atoms: _176  and  _177
REMARK   74  A    between atoms: _186  and  _188
REMARK   75  A    between atoms: _188  and  _189
REMARK   76  A    between atoms: _191  and  _193
REMARK   77  A    between atoms: _193  and  _194
REMARK   78  A    between atoms: _193  and  _196
REMARK   79  A    between atoms: _196  and  _197
REMARK   80  A    between atoms: _207  and  _209
REMARK   81  A    between atoms: _209  and  _210
REMARK   82  A    between atoms: _213  and  _215
REMARK   83  A    between atoms: _215  and  _216
REMARK   84  A    between atoms: _219  and  _221
REMARK   85  A    between atoms: _221  and  _222
REMARK   86  A    between atoms: _221  and  _224
REMARK   87  A    between atoms: _224  and  _225
REMARK   88  A    between atoms: _228  and  _230
REMARK   89  A    between atoms: _230  and  _231
REMARK   90  A    between atoms: _230  and  _233
REMARK   91  A    between atoms: _233  and  _234
REMARK   92  A    between atoms: _234  and  _235
REMARK   93  A    between atoms: _240  and  _242
REMARK   94  A    between atoms: _242  and  _243
REMARK   95  A    between atoms: _242  and  _245
REMARK   96  A    between atoms: _245  and  _246
REMARK   97  A    between atoms: _249  and  _251
REMARK   98  A    between atoms: _251  and  _252
REMARK   99  A    between atoms: _251  and  _254
REMARK  100  A    between atoms: _254  and  _255
REMARK  101  A    between atoms: _258  and  _260
REMARK  102  A    between atoms: _260  and  _261
REMARK  103  A    between atoms: _260  and  _263
REMARK  104  A    between atoms: _263  and  _264
REMARK  105  A    between atoms: _267  and  _269
REMARK  106  A    between atoms: _269  and  _270
REMARK  107  A    between atoms: _269  and  _272
REMARK  108  A    between atoms: _272  and  _273
REMARK  109  A    between atoms: _275  and  _277
REMARK  110  A    between atoms: _277  and  _278
REMARK  111  A    between atoms: _277  and  _280
REMARK  112  A    between atoms: _283  and  _285
REMARK  113  A    between atoms: _285  and  _286
REMARK  114  A    between atoms: _285  and  _288
REMARK  115  A    between atoms: _288  and  _289
REMARK  116  A    between atoms: _289  and  _290
REMARK  117  A    between atoms: _290  and  _291
REMARK  118  A    between atoms: _291  and  _292
REMARK  119  A    between atoms: _296  and  _298
REMARK  120  A    between atoms: _298  and  _299
REMARK  121  A    between atoms: _298  and  _301
REMARK  122  A    between atoms: _301  and  _302
REMARK  123  A    between atoms: _313  and  _314
REMARK  124  A    between atoms: _319  and  _321
REMARK  125  A    between atoms: _321  and  _322
REMARK  126  A    between atoms: _321  and  _324
REMARK  127  A    between atoms: _324  and  _325
REMARK  128  A    between atoms: _330  and  _332
REMARK  129  A    between atoms: _332  and  _333
REMARK  130  A    between atoms: _332  and  _335
REMARK  131  A    between atoms: _335  and  _336
REMARK  132  A    between atoms: _339  and  _341
REMARK  133  A    between atoms: _341  and  _342
REMARK  134  A    between atoms: _341  and  _344
REMARK  135  A    between atoms: _347  and  _349
REMARK  136  A    between atoms: _349  and  _350
REMARK  137  A    between atoms: _352  and  _354
REMARK  138  A    between atoms: _354  and  _355
REMARK  139  A    between atoms: _354  and  _357
REMARK  140  A    between atoms: _357  and  _358
REMARK  141  A    between atoms: _358  and  _359
REMARK  142  A    between atoms: _359  and  _360
REMARK  143  A    between atoms: _360  and  _361
REMARK  144  A    between atoms: _365  and  _367
REMARK  145  A    between atoms: _367  and  _368
REMARK  146  A    between atoms: _367  and  _370
REMARK  147  A    between atoms: _370  and  _371
REMARK  148  A    between atoms: _374  and  _376
REMARK  149  A    between atoms: _376  and  _377
REMARK  150  A    between atoms: _380  and  _382
REMARK  151  A    between atoms: _382  and  _383
REMARK  152  A    between atoms: _385  and  _387
REMARK  153  A    between atoms: _387  and  _388
REMARK  154  A    between atoms: _387  and  _390
REMARK  155  A    between atoms: _390  and  _391
REMARK  156  A    between atoms: _394  and  _396
REMARK  157  A    between atoms: _396  and  _397
REMARK  158  A    between atoms: _396  and  _399
REMARK  159  A    between atoms: _399  and  _400
REMARK  160  A    between atoms: _403  and  _405
REMARK  161  A    between atoms: _405  and  _406
REMARK  162  A    between atoms: _409  and  _411
REMARK  163  A    between atoms: _411  and  _412
REMARK  164  A    between atoms: _411  and  _414
REMARK  165  A    between atoms: _414  and  _415
REMARK  166  A    between atoms: _415  and  _416
REMARK  167  A    between atoms: _419  and  _421
REMARK  168  A    between atoms: _421  and  _422
REMARK  169  A    between atoms: _421  and  _424
REMARK  170  A    between atoms: _427  and  _429
REMARK  171  A    between atoms: _429  and  _430
REMARK  172  A    between atoms: _429  and  _432
REMARK  173  A    between atoms: _432  and  _433
REMARK  174  A    between atoms: _436  and  _438
REMARK  175  A    between atoms: _438  and  _439
REMARK  176  A    between atoms: _441  and  _443
REMARK  177  A    between atoms: _443  and  _444
REMARK  178  A    between atoms: _443  and  _446
REMARK  179  A    between atoms: _449  and  _451
REMARK  180  A    between atoms: _451  and  _452
REMARK  181  A    between atoms: _454  and  _456
REMARK  182  A    between atoms: _456  and  _457
REMARK  183  A    between atoms: _456  and  _459
REMARK  184  A    between atoms: _459  and  _460
REMARK  185  A    between atoms: _463  and  _465
REMARK  186  A    between atoms: _465  and  _466
REMARK  187  A    between atoms: _465  and  _468
REMARK  188  A    between atoms: _468  and  _469
REMARK  189  A    between atoms: _474  and  _476
REMARK  190  A    between atoms: _476  and  _477
REMARK  191  A    between atoms: _476  and  _479
REMARK  192  A    between atoms: _482  and  _484
REMARK  193  A    between atoms: _484  and  _485
REMARK  194  A    between atoms: _484  and  _487
REMARK  195  A    between atoms: _487  and  _488
REMARK  196  A    between atoms: _488  and  _489
REMARK  197  A    between atoms: _494  and  _496
REMARK  198  A    between atoms: _496  and  _497
REMARK  199  A    between atoms: _501  and  _502
REMARK  200  A    between atoms: _507  and  _509
REMARK  201  A    between atoms: _509  and  _510
REMARK  202  A    between atoms: _509  and  _512
REMARK  203  A    between atoms: _512  and  _513
REMARK  204  A    between atoms: _513  and  _514
REMARK  205  A    between atoms: _517  and  _519
REMARK  206  A    between atoms: _519  and  _520
REMARK  207  A    between atoms: _519  and  _522
REMARK  208  A    between atoms: _525  and  _527
REMARK  209  A    between atoms: _527  and  _528
REMARK  210  A    between atoms: _527  and  _530
REMARK  211  A    between atoms: _530  and  _531
REMARK  212  A    between atoms: _535  and  _536
REMARK  213  A    between atoms: _541  and  _543
REMARK  214  A    between atoms: _543  and  _544
REMARK  215  A    between atoms: _543  and  _546
REMARK  216  A    between atoms: _546  and  _547
REMARK  217  A    between atoms: _550  and  _552
REMARK  218  A    between atoms: _552  and  _553
REMARK  219  A    between atoms: _556  and  _558
REMARK  220  A    between atoms: _558  and  _559
REMARK  221  A    between atoms: _558  and  _561
REMARK  222  A    between atoms: _561  and  _562
REMARK  223  A    between atoms: _565  and  _567
REMARK  224  A    between atoms: _567  and  _568
REMARK  225  A    between atoms: _567  and  _570
REMARK  226  A    between atoms: _570  and  _571
REMARK  227  A    between atoms: _573  and  _575
REMARK  228  A    between atoms: _575  and  _576
REMARK  229  A    between atoms: _578  and  _580
REMARK  230  A    between atoms: _580  and  _581
REMARK  231  A    between atoms: _580  and  _583
REMARK  232  A    between atoms: _583  and  _584
REMARK  233  A    between atoms: _587  and  _589
REMARK  234  A    between atoms: _589  and  _590
REMARK  235  A    between atoms: _589  and  _592
REMARK                            x       y       z     vdW  Elec       q    Type
REMARK                         _______ _______ _______ _____ _____    ______ ____
ROOT
ATOM      1  O   HOH     1      -0.469   0.446  11.633  0.00  0.00    +0.000 OA
ENDROOT
TORSDOF 0
REMARK  Name = ../refined-set-2016/4xtz/4xtz_pocket.pdb
REMARK  235 active torsions:
REMARK  status: ('A' for Active; 'I' for Inactive)
REMARK    1  A    between atoms: _1  and  _3
REMARK    2  A    between atoms: _3  and  _4
REMARK    3  A    between atoms: _3  and  _6
REMARK    4  A    between atoms: _6  and  _7
REMARK    5  A    between atoms: _10  and  _12
REMARK    6  A    between atoms: _12  and  _13
REMARK    7  A    between atoms: _15  and  _17
REMARK    8  A    between atoms: _17  and  _18
REMARK    9  A    between atoms: _17  and  _20
REMARK   10  A    between atoms: _20  and  _21
REMARK   11  A    between atoms: _23  and  _25
REMARK   12  A    between atoms: _25  and  _26
REMARK   13  A    between atoms: _25  and  _28
REMARK   14  A    between atoms: _28  and  _29
REMARK   15  A    between atoms: _32  and  _34
REMARK   16  A    between atoms: _34  and  _35
REMARK   17  A    between atoms: _34  and  _37
REMARK   18  A    between atoms: _37  and  _38
REMARK   19  A    between atoms: _43  and  _45
REMARK   20  A    between atoms: _45  and  _46
REMARK   21  A    between atoms: _49  and  _51
REMARK   22  A    between atoms: _51  and  _52
REMARK   23  A    between atoms: _51  and  _54
REMARK   24  A    between atoms: _54  and  _55
REMARK   25  A    between atoms: _58  and  _60
REMARK   26  A    between atoms: _60  and  _61
REMARK   27  A    between atoms: _60  and  _63
REMARK   28  A    between atoms: _63  and  _64
REMARK   29  A    between atoms: _67  and  _69
REMARK   30  A    between atoms: _69  and  _70
REMARK   31  A    between atoms: _69  and  _72
REMARK   32  A    between atoms: _72  and  _73
REMARK   33  A    between atoms: _76  and  _78
REMARK   34  A    between atoms: _78  and  _79
REMARK   35  A    between atoms: _82  and  _84
REMARK   36  A    between atoms: _84  and  _85
REMARK   37  A    between atoms: _84  and  _87
REMARK   38  A    between atoms: _87  and  _88
REMARK   39  A    between atoms: _88  and  _89
REMARK   40  A    between atoms: _94  and  _96
REMARK   41  A    between atoms: _96  and  _97
REMARK   42  A    between atoms: _96  and  _99
REMARK   43  A    between atoms: _99  and  _100
REMARK   44  A    between atoms: _103  and  _105
REMARK   45  A    between atoms: _105  and  _106
REMARK   46  A    between atoms: _109  and  _111
REMARK   47  A    between atoms: _111  and  _112
REMARK   48  A    between atoms: _114  and  _116
REMARK   49  A    between atoms: _116  and  _117
REMARK   50  A    between atoms: _116  and  _119
REMARK   51  A    between atoms: _119  and  _120
REMARK   52  A    between atoms: _120  and  _121
REMARK   53  A    between atoms: _121  and  _122
REMARK   54  A    between atoms: _131  and  _133
REMARK   55  A    between atoms: _133  and  _134
REMARK   56  A    between atoms: _136  and  _138
REMARK   57  A    between atoms: _138  and  _139
REMARK   58  A    between atoms: _138  and  _141
REMARK   59  A    between atoms: _141  and  _142
REMARK   60  A    between atoms: _142  and  _143
REMARK   61  A    between atoms: _143  and  _144
REMARK   62  A    between atoms: _153  and  _155
REMARK   63  A    between atoms: _155  and  _156
REMARK   64  A    between atoms: _155  and  _158
REMARK   65  A    between atoms: _158  and  _159
REMARK   66  A    between atoms: _164  and  _166
REMARK   67  A    between atoms: _166  and  _167
REMARK   68  A    between atoms: _169  and  _171
REMARK   69  A    between atoms: _171  and  _172
REMARK   70  A    between atoms: _171  and  _174
REMARK   71  A    between atoms: _174  and  _175
REMARK   72  A    between atoms: _175  and  _176
REMARK   73  A    between atoms: _176  and  _177
REMARK   74  A    between atoms: _186  and  _188
REMARK   75  A    between atoms: _188  and  _189
REMARK   76  A    between atoms: _191  and  _193
REMARK   77  A    between atoms: _193  and  _194
REMARK   78  A    between atoms: _193  and  _196
REMARK   79  A    between atoms: _196  and  _197
REMARK   80  A    between atoms: _207  and  _209
REMARK   81  A    between atoms: _209  and  _210
REMARK   82  A    between atoms: _213  and  _215
REMARK   83  A    between atoms: _215  and  _216
REMARK   84  A    between atoms: _219  and  _221
REMARK   85  A    between atoms: _221  and  _222
REMARK   86  A    between atoms: _221  and  _224
REMARK   87  A    between atoms: _224  and  _225
REMARK   88  A    between atoms: _228  and  _230
REMARK   89  A    between atoms: _230  and  _231
REMARK   90  A    between atoms: _230  and  _233
REMARK   91  A    between atoms: _233  and  _234
REMARK   92  A    between atoms: _234  and  _235
REMARK   93  A    between atoms: _240  and  _242
REMARK   94  A    between atoms: _242  and  _243
REMARK   95  A    between atoms: _242  and  _245
REMARK   96  A    between atoms: _245  and  _246
REMARK   97  A    between atoms: _249  and  _251
REMARK   98  A    between atoms: _251  and  _252
REMARK   99  A    between atoms: _251  and  _254
REMARK  100  A    between atoms: _254  and  _255
REMARK  101  A    between atoms: _258  and  _260
REMARK  102  A    between atoms: _260  and  _261
REMARK  103  A    between atoms: _260  and  _263
REMARK  104  A    between atoms: _263  and  _264
REMARK  105  A    between atoms: _267  and  _269
REMARK  106  A    between atoms: _269  and  _270
REMARK  107  A    between atoms: _269  and  _272
REMARK  108  A    between atoms: _272  and  _273
REMARK  109  A    between atoms: _275  and  _277
REMARK  110  A    between atoms: _277  and  _278
REMARK  111  A    between atoms: _277  and  _280
REMARK  112  A    between atoms: _283  and  _285
REMARK  113  A    between atoms: _285  and  _286
REMARK  114  A    between atoms: _285  and  _288
REMARK  115  A    between atoms: _288  and  _289
REMARK  116  A    between atoms: _289  and  _290
REMARK  117  A    between atoms: _290  and  _291
REMARK  118  A    between atoms: _291  and  _292
REMARK  119  A    between atoms: _296  and  _298
REMARK  120  A    between atoms: _298  and  _299
REMARK  121  A    between atoms: _298  and  _301
REMARK  122  A    between atoms: _301  and  _302
REMARK  123  A    between atoms: _313  and  _314
REMARK  124  A    between atoms: _319  and  _321
REMARK  125  A    between atoms: _321  and  _322
REMARK  126  A    between atoms: _321  and  _324
REMARK  127  A    between atoms: _324  and  _325
REMARK  128  A    between atoms: _330  and  _332
REMARK  129  A    between atoms: _332  and  _333
REMARK  130  A    between atoms: _332  and  _335
REMARK  131  A    between atoms: _335  and  _336
REMARK  132  A    between atoms: _339  and  _341
REMARK  133  A    between atoms: _341  and  _342
REMARK  134  A    between atoms: _341  and  _344
REMARK  135  A    between atoms: _347  and  _349
REMARK  136  A    between atoms: _349  and  _350
REMARK  137  A    between atoms: _352  and  _354
REMARK  138  A    between atoms: _354  and  _355
REMARK  139  A    between atoms: _354  and  _357
REMARK  140  A    between atoms: _357  and  _358
REMARK  141  A    between atoms: _358  and  _359
REMARK  142  A    between atoms: _359  and  _360
REMARK  143  A    between atoms: _360  and  _361
REMARK  144  A    between atoms: _365  and  _367
REMARK  145  A    between atoms: _367  and  _368
REMARK  146  A    between atoms: _367  and  _370
REMARK  147  A    between atoms: _370  and  _371
REMARK  148  A    between atoms: _374  and  _376
REMARK  149  A    between atoms: _376  and  _377
REMARK  150  A    between atoms: _380  and  _382
REMARK  151  A    between atoms: _382  and  _383
REMARK  152  A    between atoms: _385  and  _387
REMARK  153  A    between atoms: _387  and  _388
REMARK  154  A    between atoms: _387  and  _390
REMARK  155  A    between atoms: _390  and  _391
REMARK  156  A    between atoms: _394  and  _396
REMARK  157  A    between atoms: _396  and  _397
REMARK  158  A    between atoms: _396  and  _399
REMARK  159  A    between atoms: _399  and  _400
REMARK  160  A    between atoms: _403  and  _405
REMARK  161  A    between atoms: _405  and  _406
REMARK  162  A    between atoms: _409  and  _411
REMARK  163  A    between atoms: _411  and  _412
REMARK  164  A    between atoms: _411  and  _414
REMARK  165  A    between atoms: _414  and  _415
REMARK  166  A    between atoms: _415  and  _416
REMARK  167  A    between atoms: _419  and  _421
REMARK  168  A    between atoms: _421  and  _422
REMARK  169  A    between atoms: _421  and  _424
REMARK  170  A    between atoms: _427  and  _429
REMARK  171  A    between atoms: _429  and  _430
REMARK  172  A    between atoms: _429  and  _432
REMARK  173  A    between atoms: _432  and  _433
REMARK  174  A    between atoms: _436  and  _438
REMARK  175  A    between atoms: _438  and  _439
REMARK  176  A    between atoms: _441  and  _443
REMARK  177  A    between atoms: _443  and  _444
REMARK  178  A    between atoms: _443  and  _446
REMARK  179  A    between atoms: _449  and  _451
REMARK  180  A    between atoms: _451  and  _452
REMARK  181  A    between atoms: _454  and  _456
REMARK  182  A    between atoms: _456  and  _457
REMARK  183  A    between atoms: _456  and  _459
REMARK  184  A    between atoms: _459  and  _460
REMARK  185  A    between atoms: _463  and  _465
REMARK  186  A    between atoms: _465  and  _466
REMARK  187  A    between atoms: _465  and  _468
REMARK  188  A    between atoms: _468  and  _469
REMARK  189  A    between atoms: _474  and  _476
REMARK  190  A    between atoms: _476  and  _477
REMARK  191  A    between atoms: _476  and  _479
REMARK  192  A    between atoms: _482  and  _484
REMARK  193  A    between atoms: _484  and  _485
REMARK  194  A    between atoms: _484  and  _487
REMARK  195  A    between atoms: _487  and  _488
REMARK  196  A    between atoms: _488  and  _489
REMARK  197  A    between atoms: _494  and  _496
REMARK  198  A    between atoms: _496  and  _497
REMARK  199  A    between atoms: _501  and  _502
REMARK  200  A    between atoms: _507  and  _509
REMARK  201  A    between atoms: _509  and  _510
REMARK  202  A    between atoms: _509  and  _512
REMARK  203  A    between atoms: _512  and  _513
REMARK  204  A    between atoms: _513  and  _514
REMARK  205  A    between atoms: _517  and  _519
REMARK  206  A    between atoms: _519  and  _520
REMARK  207  A    between atoms: _519  and  _522
REMARK  208  A    between atoms: _525  and  _527
REMARK  209  A    between atoms: _527  and  _528
REMARK  210  A    between atoms: _527  and  _530
REMARK  211  A    between atoms: _530  and  _531
REMARK  212  A    between atoms: _535  and  _536
REMARK  213  A    between atoms: _541  and  _543
REMARK  214  A    between atoms: _543  and  _544
REMARK  215  A    between atoms: _543  and  _546
REMARK  216  A    between atoms: _546  and  _547
REMARK  217  A    between atoms: _550  and  _552
REMARK  218  A    between atoms: _552  and  _553
REMARK  219  A    between atoms: _556  and  _558
REMARK  220  A    between atoms: _558  and  _559
REMARK  221  A    between atoms: _558  and  _561
REMARK  222  A    between atoms: _561  and  _562
REMARK  223  A    between atoms: _565  and  _567
REMARK  224  A    between atoms: _567  and  _568
REMARK  225  A    between atoms: _567  and  _570
REMARK  226  A    between atoms: _570  and  _571
REMARK  227  A    between atoms: _573  and  _575
REMARK  228  A    between atoms: _575  and  _576
REMARK  229  A    between atoms: _578  and  _580
REMARK  230  A    between atoms: _580  and  _581
REMARK  231  A    between atoms: _580  and  _583
REMARK  232  A    between atoms: _583  and  _584
REMARK  233  A    between atoms: _587  and  _589
REMARK  234  A    between atoms: _589  and  _590
REMARK  235  A    between atoms: _589  and  _592
REMARK                            x       y       z     vdW  Elec       q    Type
REMARK                         _______ _______ _______ _____ _____    ______ ____
ROOT
ATOM      1  O   HOH     1       1.427   0.220  13.440  0.00  0.00    +0.000 OA
ENDROOT
TORSDOF 0
REMARK  Name = ../refined-set-2016/4xtz/4xtz_pocket.pdb
REMARK  235 active torsions:
REMARK  status: ('A' for Active; 'I' for Inactive)
REMARK    1  A    between atoms: _1  and  _3
REMARK    2  A    between atoms: _3  and  _4
REMARK    3  A    between atoms: _3  and  _6
REMARK    4  A    between atoms: _6  and  _7
REMARK    5  A    between atoms: _10  and  _12
REMARK    6  A    between atoms: _12  and  _13
REMARK    7  A    between atoms: _15  and  _17
REMARK    8  A    between atoms: _17  and  _18
REMARK    9  A    between atoms: _17  and  _20
REMARK   10  A    between atoms: _20  and  _21
REMARK   11  A    between atoms: _23  and  _25
REMARK   12  A    between atoms: _25  and  _26
REMARK   13  A    between atoms: _25  and  _28
REMARK   14  A    between atoms: _28  and  _29
REMARK   15  A    between atoms: _32  and  _34
REMARK   16  A    between atoms: _34  and  _35
REMARK   17  A    between atoms: _34  and  _37
REMARK   18  A    between atoms: _37  and  _38
REMARK   19  A    between atoms: _43  and  _45
REMARK   20  A    between atoms: _45  and  _46
REMARK   21  A    between atoms: _49  and  _51
REMARK   22  A    between atoms: _51  and  _52
REMARK   23  A    between atoms: _51  and  _54
REMARK   24  A    between atoms: _54  and  _55
REMARK   25  A    between atoms: _58  and  _60
REMARK   26  A    between atoms: _60  and  _61
REMARK   27  A    between atoms: _60  and  _63
REMARK   28  A    between atoms: _63  and  _64
REMARK   29  A    between atoms: _67  and  _69
REMARK   30  A    between atoms: _69  and  _70
REMARK   31  A    between atoms: _69  and  _72
REMARK   32  A    between atoms: _72  and  _73
REMARK   33  A    between atoms: _76  and  _78
REMARK   34  A    between atoms: _78  and  _79
REMARK   35  A    between atoms: _82  and  _84
REMARK   36  A    between atoms: _84  and  _85
REMARK   37  A    between atoms: _84  and  _87
REMARK   38  A    between atoms: _87  and  _88
REMARK   39  A    between atoms: _88  and  _89
REMARK   40  A    between atoms: _94  and  _96
REMARK   41  A    between atoms: _96  and  _97
REMARK   42  A    between atoms: _96  and  _99
REMARK   43  A    between atoms: _99  and  _100
REMARK   44  A    between atoms: _103  and  _105
REMARK   45  A    between atoms: _105  and  _106
REMARK   46  A    between atoms: _109  and  _111
REMARK   47  A    between atoms: _111  and  _112
REMARK   48  A    between atoms: _114  and  _116
REMARK   49  A    between atoms: _116  and  _117
REMARK   50  A    between atoms: _116  and  _119
REMARK   51  A    between atoms: _119  and  _120
REMARK   52  A    between atoms: _120  and  _121
REMARK   53  A    between atoms: _121  and  _122
REMARK   54  A    between atoms: _131  and  _133
REMARK   55  A    between atoms: _133  and  _134
REMARK   56  A    between atoms: _136  and  _138
REMARK   57  A    between atoms: _138  and  _139
REMARK   58  A    between atoms: _138  and  _141
REMARK   59  A    between atoms: _141  and  _142
REMARK   60  A    between atoms: _142  and  _143
REMARK   61  A    between atoms: _143  and  _144
REMARK   62  A    between atoms: _153  and  _155
REMARK   63  A    between atoms: _155  and  _156
REMARK   64  A    between atoms: _155  and  _158
REMARK   65  A    between atoms: _158  and  _159
REMARK   66  A    between atoms: _164  and  _166
REMARK   67  A    between atoms: _166  and  _167
REMARK   68  A    between atoms: _169  and  _171
REMARK   69  A    between atoms: _171  and  _172
REMARK   70  A    between atoms: _171  and  _174
REMARK   71  A    between atoms: _174  and  _175
REMARK   72  A    between atoms: _175  and  _176
REMARK   73  A    between atoms: _176  and  _177
REMARK   74  A    between atoms: _186  and  _188
REMARK   75  A    between atoms: _188  and  _189
REMARK   76  A    between atoms: _191  and  _193
REMARK   77  A    between atoms: _193  and  _194
REMARK   78  A    between atoms: _193  and  _196
REMARK   79  A    between atoms: _196  and  _197
REMARK   80  A    between atoms: _207  and  _209
REMARK   81  A    between atoms: _209  and  _210
REMARK   82  A    between atoms: _213  and  _215
REMARK   83  A    between atoms: _215  and  _216
REMARK   84  A    between atoms: _219  and  _221
REMARK   85  A    between atoms: _221  and  _222
REMARK   86  A    between atoms: _221  and  _224
REMARK   87  A    between atoms: _224  and  _225
REMARK   88  A    between atoms: _228  and  _230
REMARK   89  A    between atoms: _230  and  _231
REMARK   90  A    between atoms: _230  and  _233
REMARK   91  A    between atoms: _233  and  _234
REMARK   92  A    between atoms: _234  and  _235
REMARK   93  A    between atoms: _240  and  _242
REMARK   94  A    between atoms: _242  and  _243
REMARK   95  A    between atoms: _242  and  _245
REMARK   96  A    between atoms: _245  and  _246
REMARK   97  A    between atoms: _249  and  _251
REMARK   98  A    between atoms: _251  and  _252
REMARK   99  A    between atoms: _251  and  _254
REMARK  100  A    between atoms: _254  and  _255
REMARK  101  A    between atoms: _258  and  _260
REMARK  102  A    between atoms: _260  and  _261
REMARK  103  A    between atoms: _260  and  _263
REMARK  104  A    between atoms: _263  and  _264
REMARK  105  A    between atoms: _267  and  _269
REMARK  106  A    between atoms: _269  and  _270
REMARK  107  A    between atoms: _269  and  _272
REMARK  108  A    between atoms: _272  and  _273
REMARK  109  A    between atoms: _275  and  _277
REMARK  110  A    between atoms: _277  and  _278
REMARK  111  A    between atoms: _277  and  _280
REMARK  112  A    between atoms: _283  and  _285
REMARK  113  A    between atoms: _285  and  _286
REMARK  114  A    between atoms: _285  and  _288
REMARK  115  A    between atoms: _288  and  _289
REMARK  116  A    between atoms: _289  and  _290
REMARK  117  A    between atoms: _290  and  _291
REMARK  118  A    between atoms: _291  and  _292
REMARK  119  A    between atoms: _296  and  _298
REMARK  120  A    between atoms: _298  and  _299
REMARK  121  A    between atoms: _298  and  _301
REMARK  122  A    between atoms: _301  and  _302
REMARK  123  A    between atoms: _313  and  _314
REMARK  124  A    between atoms: _319  and  _321
REMARK  125  A    between atoms: _321  and  _322
REMARK  126  A    between atoms: _321  and  _324
REMARK  127  A    between atoms: _324  and  _325
REMARK  128  A    between atoms: _330  and  _332
REMARK  129  A    between atoms: _332  and  _333
REMARK  130  A    between atoms: _332  and  _335
REMARK  131  A    between atoms: _335  and  _336
REMARK  132  A    between atoms: _339  and  _341
REMARK  133  A    between atoms: _341  and  _342
REMARK  134  A    between atoms: _341  and  _344
REMARK  135  A    between atoms: _347  and  _349
REMARK  136  A    between atoms: _349  and  _350
REMARK  137  A    between atoms: _352  and  _354
REMARK  138  A    between atoms: _354  and  _355
REMARK  139  A    between atoms: _354  and  _357
REMARK  140  A    between atoms: _357  and  _358
REMARK  141  A    between atoms: _358  and  _359
REMARK  142  A    between atoms: _359  and  _360
REMARK  143  A    between atoms: _360  and  _361
REMARK  144  A    between atoms: _365  and  _367
REMARK  145  A    between atoms: _367  and  _368
REMARK  146  A    between atoms: _367  and  _370
REMARK  147  A    between atoms: _370  and  _371
REMARK  148  A    between atoms: _374  and  _376
REMARK  149  A    between atoms: _376  and  _377
REMARK  150  A    between atoms: _380  and  _382
REMARK  151  A    between atoms: _382  and  _383
REMARK  152  A    between atoms: _385  and  _387
REMARK  153  A    between atoms: _387  and  _388
REMARK  154  A    between atoms: _387  and  _390
REMARK  155  A    between atoms: _390  and  _391
REMARK  156  A    between atoms: _394  and  _396
REMARK  157  A    between atoms: _396  and  _397
REMARK  158  A    between atoms: _396  and  _399
REMARK  159  A    between atoms: _399  and  _400
REMARK  160  A    between atoms: _403  and  _405
REMARK  161  A    between atoms: _405  and  _406
REMARK  162  A    between atoms: _409  and  _411
REMARK  163  A    between atoms: _411  and  _412
REMARK  164  A    between atoms: _411  and  _414
REMARK  165  A    between atoms: _414  and  _415
REMARK  166  A    between atoms: _415  and  _416
REMARK  167  A    between atoms: _419  and  _421
REMARK  168  A    between atoms: _421  and  _422
REMARK  169  A    between atoms: _421  and  _424
REMARK  170  A    between atoms: _427  and  _429
REMARK  171  A    between atoms: _429  and  _430
REMARK  172  A    between atoms: _429  and  _432
REMARK  173  A    between atoms: _432  and  _433
REMARK  174  A    between atoms: _436  and  _438
REMARK  175  A    between atoms: _438  and  _439
REMARK  176  A    between atoms: _441  and  _443
REMARK  177  A    between atoms: _443  and  _444
REMARK  178  A    between atoms: _443  and  _446
REMARK  179  A    between atoms: _449  and  _451
REMARK  180  A    between atoms: _451  and  _452
REMARK  181  A    between atoms: _454  and  _456
REMARK  182  A    between atoms: _456  and  _457
REMARK  183  A    between atoms: _456  and  _459
REMARK  184  A    between atoms: _459  and  _460
REMARK  185  A    between atoms: _463  and  _465
REMARK  186  A    between atoms: _465  and  _466
REMARK  187  A    between atoms: _465  and  _468
REMARK  188  A    between atoms: _468  and  _469
REMARK  189  A    between atoms: _474  and  _476
REMARK  190  A    between atoms: _476  and  _477
REMARK  191  A    between atoms: _476  and  _479
REMARK  192  A    between atoms: _482  and  _484
REMARK  193  A    between atoms: _484  and  _485
REMARK  194  A    between atoms: _484  and  _487
REMARK  195  A    between atoms: _487  and  _488
REMARK  196  A    between atoms: _488  and  _489
REMARK  197  A    between atoms: _494  and  _496
REMARK  198  A    between atoms: _496  and  _497
REMARK  199  A    between atoms: _501  and  _502
REMARK  200  A    between atoms: _507  and  _509
REMARK  201  A    between atoms: _509  and  _510
REMARK  202  A    between atoms: _509  and  _512
REMARK  203  A    between atoms: _512  and  _513
REMARK  204  A    between atoms: _513  and  _514
REMARK  205  A    between atoms: _517  and  _519
REMARK  206  A    between atoms: _519  and  _520
REMARK  207  A    between atoms: _519  and  _522
REMARK  208  A    between atoms: _525  and  _527
REMARK  209  A    between atoms: _527  and  _528
REMARK  210  A    between atoms: _527  and  _530
REMARK  211  A    between atoms: _530  and  _531
REMARK  212  A    between atoms: _535  and  _536
REMARK  213  A    between atoms: _541  and  _543
REMARK  214  A    between atoms: _543  and  _544
REMARK  215  A    between atoms: _543  and  _546
REMARK  216  A    between atoms: _546  and  _547
REMARK  217  A    between atoms: _550  and  _552
REMARK  218  A    between atoms: _552  and  _553
REMARK  219  A    between atoms: _556  and  _558
REMARK  220  A    between atoms: _558  and  _559
REMARK  221  A    between atoms: _558  and  _561
REMARK  222  A    between atoms: _561  and  _562
REMARK  223  A    between atoms: _565  and  _567
REMARK  224  A    between atoms: _567  and  _568
REMARK  225  A    between atoms: _567  and  _570
REMARK  226  A    between atoms: _570  and  _571
REMARK  227  A    between atoms: _573  and  _575
REMARK  228  A    between atoms: _575  and  _576
REMARK  229  A    between atoms: _578  and  _580
REMARK  230  A    between atoms: _580  and  _581
REMARK  231  A    between atoms: _580  and  _583
REMARK  232  A    between atoms: _583  and  _584
REMARK  233  A    between atoms: _587  and  _589
REMARK  234  A    between atoms: _589  and  _590
REMARK  235  A    between atoms: _589  and  _592
REMARK                            x       y       z     vdW  Elec       q    Type
REMARK                         _______ _______ _______ _____ _____    ______ ____
ROOT
ATOM      1  O   HOH     1       6.779  -7.444  14.758  0.00  0.00    +0.000 OA
ENDROOT
TORSDOF 0
REMARK  Name = ../refined-set-2016/4xtz/4xtz_pocket.pdb
REMARK  235 active torsions:
REMARK  status: ('A' for Active; 'I' for Inactive)
REMARK    1  A    between atoms: _1  and  _3
REMARK    2  A    between atoms: _3  and  _4
REMARK    3  A    between atoms: _3  and  _6
REMARK    4  A    between atoms: _6  and  _7
REMARK    5  A    between atoms: _10  and  _12
REMARK    6  A    between atoms: _12  and  _13
REMARK    7  A    between atoms: _15  and  _17
REMARK    8  A    between atoms: _17  and  _18
REMARK    9  A    between atoms: _17  and  _20
REMARK   10  A    between atoms: _20  and  _21
REMARK   11  A    between atoms: _23  and  _25
REMARK   12  A    between atoms: _25  and  _26
REMARK   13  A    between atoms: _25  and  _28
REMARK   14  A    between atoms: _28  and  _29
REMARK   15  A    between atoms: _32  and  _34
REMARK   16  A    between atoms: _34  and  _35
REMARK   17  A    between atoms: _34  and  _37
REMARK   18  A    between atoms: _37  and  _38
REMARK   19  A    between atoms: _43  and  _45
REMARK   20  A    between atoms: _45  and  _46
REMARK   21  A    between atoms: _49  and  _51
REMARK   22  A    between atoms: _51  and  _52
REMARK   23  A    between atoms: _51  and  _54
REMARK   24  A    between atoms: _54  and  _55
REMARK   25  A    between atoms: _58  and  _60
REMARK   26  A    between atoms: _60  and  _61
REMARK   27  A    between atoms: _60  and  _63
REMARK   28  A    between atoms: _63  and  _64
REMARK   29  A    between atoms: _67  and  _69
REMARK   30  A    between atoms: _69  and  _70
REMARK   31  A    between atoms: _69  and  _72
REMARK   32  A    between atoms: _72  and  _73
REMARK   33  A    between atoms: _76  and  _78
REMARK   34  A    between atoms: _78  and  _79
REMARK   35  A    between atoms: _82  and  _84
REMARK   36  A    between atoms: _84  and  _85
REMARK   37  A    between atoms: _84  and  _87
REMARK   38  A    between atoms: _87  and  _88
REMARK   39  A    between atoms: _88  and  _89
REMARK   40  A    between atoms: _94  and  _96
REMARK   41  A    between atoms: _96  and  _97
REMARK   42  A    between atoms: _96  and  _99
REMARK   43  A    between atoms: _99  and  _100
REMARK   44  A    between atoms: _103  and  _105
REMARK   45  A    between atoms: _105  and  _106
REMARK   46  A    between atoms: _109  and  _111
REMARK   47  A    between atoms: _111  and  _112
REMARK   48  A    between atoms: _114  and  _116
REMARK   49  A    between atoms: _116  and  _117
REMARK   50  A    between atoms: _116  and  _119
REMARK   51  A    between atoms: _119  and  _120
REMARK   52  A    between atoms: _120  and  _121
REMARK   53  A    between atoms: _121  and  _122
REMARK   54  A    between atoms: _131  and  _133
REMARK   55  A    between atoms: _133  and  _134
REMARK   56  A    between atoms: _136  and  _138
REMARK   57  A    between atoms: _138  and  _139
REMARK   58  A    between atoms: _138  and  _141
REMARK   59  A    between atoms: _141  and  _142
REMARK   60  A    between atoms: _142  and  _143
REMARK   61  A    between atoms: _143  and  _144
REMARK   62  A    between atoms: _153  and  _155
REMARK   63  A    between atoms: _155  and  _156
REMARK   64  A    between atoms: _155  and  _158
REMARK   65  A    between atoms: _158  and  _159
REMARK   66  A    between atoms: _164  and  _166
REMARK   67  A    between atoms: _166  and  _167
REMARK   68  A    between atoms: _169  and  _171
REMARK   69  A    between atoms: _171  and  _172
REMARK   70  A    between atoms: _171  and  _174
REMARK   71  A    between atoms: _174  and  _175
REMARK   72  A    between atoms: _175  and  _176
REMARK   73  A    between atoms: _176  and  _177
REMARK   74  A    between atoms: _186  and  _188
REMARK   75  A    between atoms: _188  and  _189
REMARK   76  A    between atoms: _191  and  _193
REMARK   77  A    between atoms: _193  and  _194
REMARK   78  A    between atoms: _193  and  _196
REMARK   79  A    between atoms: _196  and  _197
REMARK   80  A    between atoms: _207  and  _209
REMARK   81  A    between atoms: _209  and  _210
REMARK   82  A    between atoms: _213  and  _215
REMARK   83  A    between atoms: _215  and  _216
REMARK   84  A    between atoms: _219  and  _221
REMARK   85  A    between atoms: _221  and  _222
REMARK   86  A    between atoms: _221  and  _224
REMARK   87  A    between atoms: _224  and  _225
REMARK   88  A    between atoms: _228  and  _230
REMARK   89  A    between atoms: _230  and  _231
REMARK   90  A    between atoms: _230  and  _233
REMARK   91  A    between atoms: _233  and  _234
REMARK   92  A    between atoms: _234  and  _235
REMARK   93  A    between atoms: _240  and  _242
REMARK   94  A    between atoms: _242  and  _243
REMARK   95  A    between atoms: _242  and  _245
REMARK   96  A    between atoms: _245  and  _246
REMARK   97  A    between atoms: _249  and  _251
REMARK   98  A    between atoms: _251  and  _252
REMARK   99  A    between atoms: _251  and  _254
REMARK  100  A    between atoms: _254  and  _255
REMARK  101  A    between atoms: _258  and  _260
REMARK  102  A    between atoms: _260  and  _261
REMARK  103  A    between atoms: _260  and  _263
REMARK  104  A    between atoms: _263  and  _264
REMARK  105  A    between atoms: _267  and  _269
REMARK  106  A    between atoms: _269  and  _270
REMARK  107  A    between atoms: _269  and  _272
REMARK  108  A    between atoms: _272  and  _273
REMARK  109  A    between atoms: _275  and  _277
REMARK  110  A    between atoms: _277  and  _278
REMARK  111  A    between atoms: _277  and  _280
REMARK  112  A    between atoms: _283  and  _285
REMARK  113  A    between atoms: _285  and  _286
REMARK  114  A    between atoms: _285  and  _288
REMARK  115  A    between atoms: _288  and  _289
REMARK  116  A    between atoms: _289  and  _290
REMARK  117  A    between atoms: _290  and  _291
REMARK  118  A    between atoms: _291  and  _292
REMARK  119  A    between atoms: _296  and  _298
REMARK  120  A    between atoms: _298  and  _299
REMARK  121  A    between atoms: _298  and  _301
REMARK  122  A    between atoms: _301  and  _302
REMARK  123  A    between atoms: _313  and  _314
REMARK  124  A    between atoms: _319  and  _321
REMARK  125  A    between atoms: _321  and  _322
REMARK  126  A    between atoms: _321  and  _324
REMARK  127  A    between atoms: _324  and  _325
REMARK  128  A    between atoms: _330  and  _332
REMARK  129  A    between atoms: _332  and  _333
REMARK  130  A    between atoms: _332  and  _335
REMARK  131  A    between atoms: _335  and  _336
REMARK  132  A    between atoms: _339  and  _341
REMARK  133  A    between atoms: _341  and  _342
REMARK  134  A    between atoms: _341  and  _344
REMARK  135  A    between atoms: _347  and  _349
REMARK  136  A    between atoms: _349  and  _350
REMARK  137  A    between atoms: _352  and  _354
REMARK  138  A    between atoms: _354  and  _355
REMARK  139  A    between atoms: _354  and  _357
REMARK  140  A    between atoms: _357  and  _358
REMARK  141  A    between atoms: _358  and  _359
REMARK  142  A    between atoms: _359  and  _360
REMARK  143  A    between atoms: _360  and  _361
REMARK  144  A    between atoms: _365  and  _367
REMARK  145  A    between atoms: _367  and  _368
REMARK  146  A    between atoms: _367  and  _370
REMARK  147  A    between atoms: _370  and  _371
REMARK  148  A    between atoms: _374  and  _376
REMARK  149  A    between atoms: _376  and  _377
REMARK  150  A    between atoms: _380  and  _382
REMARK  151  A    between atoms: _382  and  _383
REMARK  152  A    between atoms: _385  and  _387
REMARK  153  A    between atoms: _387  and  _388
REMARK  154  A    between atoms: _387  and  _390
REMARK  155  A    between atoms: _390  and  _391
REMARK  156  A    between atoms: _394  and  _396
REMARK  157  A    between atoms: _396  and  _397
REMARK  158  A    between atoms: _396  and  _399
REMARK  159  A    between atoms: _399  and  _400
REMARK  160  A    between atoms: _403  and  _405
REMARK  161  A    between atoms: _405  and  _406
REMARK  162  A    between atoms: _409  and  _411
REMARK  163  A    between atoms: _411  and  _412
REMARK  164  A    between atoms: _411  and  _414
REMARK  165  A    between atoms: _414  and  _415
REMARK  166  A    between atoms: _415  and  _416
REMARK  167  A    between atoms: _419  and  _421
REMARK  168  A    between atoms: _421  and  _422
REMARK  169  A    between atoms: _421  and  _424
REMARK  170  A    between atoms: _427  and  _429
REMARK  171  A    between atoms: _429  and  _430
REMARK  172  A    between atoms: _429  and  _432
REMARK  173  A    between atoms: _432  and  _433
REMARK  174  A    between atoms: _436  and  _438
REMARK  175  A    between atoms: _438  and  _439
REMARK  176  A    between atoms: _441  and  _443
REMARK  177  A    between atoms: _443  and  _444
REMARK  178  A    between atoms: _443  and  _446
REMARK  179  A    between atoms: _449  and  _451
REMARK  180  A    between atoms: _451  and  _452
REMARK  181  A    between atoms: _454  and  _456
REMARK  182  A    between atoms: _456  and  _457
REMARK  183  A    between atoms: _456  and  _459
REMARK  184  A    between atoms: _459  and  _460
REMARK  185  A    between atoms: _463  and  _465
REMARK  186  A    between atoms: _465  and  _466
REMARK  187  A    between atoms: _465  and  _468
REMARK  188  A    between atoms: _468  and  _469
REMARK  189  A    between atoms: _474  and  _476
REMARK  190  A    between atoms: _476  and  _477
REMARK  191  A    between atoms: _476  and  _479
REMARK  192  A    between atoms: _482  and  _484
REMARK  193  A    between atoms: _484  and  _485
REMARK  194  A    between atoms: _484  and  _487
REMARK  195  A    between atoms: _487  and  _488
REMARK  196  A    between atoms: _488  and  _489
REMARK  197  A    between atoms: _494  and  _496
REMARK  198  A    between atoms: _496  and  _497
REMARK  199  A    between atoms: _501  and  _502
REMARK  200  A    between atoms: _507  and  _509
REMARK  201  A    between atoms: _509  and  _510
REMARK  202  A    between atoms: _509  and  _512
REMARK  203  A    between atoms: _512  and  _513
REMARK  204  A    between atoms: _513  and  _514
REMARK  205  A    between atoms: _517  and  _519
REMARK  206  A    between atoms: _519  and  _520
REMARK  207  A    between atoms: _519  and  _522
REMARK  208  A    between atoms: _525  and  _527
REMARK  209  A    between atoms: _527  and  _528
REMARK  210  A    between atoms: _527  and  _530
REMARK  211  A    between atoms: _530  and  _531
REMARK  212  A    between atoms: _535  and  _536
REMARK  213  A    between atoms: _541  and  _543
REMARK  214  A    between atoms: _543  and  _544
REMARK  215  A    between atoms: _543  and  _546
REMARK  216  A    between atoms: _546  and  _547
REMARK  217  A    between atoms: _550  and  _552
REMARK  218  A    between atoms: _552  and  _553
REMARK  219  A    between atoms: _556  and  _558
REMARK  220  A    between atoms: _558  and  _559
REMARK  221  A    between atoms: _558  and  _561
REMARK  222  A    between atoms: _561  and  _562
REMARK  223  A    between atoms: _565  and  _567
REMARK  224  A    between atoms: _567  and  _568
REMARK  225  A    between atoms: _567  and  _570
REMARK  226  A    between atoms: _570  and  _571
REMARK  227  A    between atoms: _573  and  _575
REMARK  228  A    between atoms: _575  and  _576
REMARK  229  A    between atoms: _578  and  _580
REMARK  230  A    between atoms: _580  and  _581
REMARK  231  A    between atoms: _580  and  _583
REMARK  232  A    between atoms: _583  and  _584
REMARK  233  A    between atoms: _587  and  _589
REMARK  234  A    between atoms: _589  and  _590
REMARK  235  A    between atoms: _589  and  _592
REMARK                            x       y       z     vdW  Elec       q    Type
REMARK                         _______ _______ _______ _____ _____    ______ ____
ROOT
ATOM      1  O   HOH     1      -2.931   4.583   9.896  0.00  0.00    +0.000 OA
ENDROOT
TORSDOF 0
REMARK  Name = ../refined-set-2016/4xtz/4xtz_pocket.pdb
REMARK  235 active torsions:
REMARK  status: ('A' for Active; 'I' for Inactive)
REMARK    1  A    between atoms: _1  and  _3
REMARK    2  A    between atoms: _3  and  _4
REMARK    3  A    between atoms: _3  and  _6
REMARK    4  A    between atoms: _6  and  _7
REMARK    5  A    between atoms: _10  and  _12
REMARK    6  A    between atoms: _12  and  _13
REMARK    7  A    between atoms: _15  and  _17
REMARK    8  A    between atoms: _17  and  _18
REMARK    9  A    between atoms: _17  and  _20
REMARK   10  A    between atoms: _20  and  _21
REMARK   11  A    between atoms: _23  and  _25
REMARK   12  A    between atoms: _25  and  _26
REMARK   13  A    between atoms: _25  and  _28
REMARK   14  A    between atoms: _28  and  _29
REMARK   15  A    between atoms: _32  and  _34
REMARK   16  A    between atoms: _34  and  _35
REMARK   17  A    between atoms: _34  and  _37
REMARK   18  A    between atoms: _37  and  _38
REMARK   19  A    between atoms: _43  and  _45
REMARK   20  A    between atoms: _45  and  _46
REMARK   21  A    between atoms: _49  and  _51
REMARK   22  A    between atoms: _51  and  _52
REMARK   23  A    between atoms: _51  and  _54
REMARK   24  A    between atoms: _54  and  _55
REMARK   25  A    between atoms: _58  and  _60
REMARK   26  A    between atoms: _60  and  _61
REMARK   27  A    between atoms: _60  and  _63
REMARK   28  A    between atoms: _63  and  _64
REMARK   29  A    between atoms: _67  and  _69
REMARK   30  A    between atoms: _69  and  _70
REMARK   31  A    between atoms: _69  and  _72
REMARK   32  A    between atoms: _72  and  _73
REMARK   33  A    between atoms: _76  and  _78
REMARK   34  A    between atoms: _78  and  _79
REMARK   35  A    between atoms: _82  and  _84
REMARK   36  A    between atoms: _84  and  _85
REMARK   37  A    between atoms: _84  and  _87
REMARK   38  A    between atoms: _87  and  _88
REMARK   39  A    between atoms: _88  and  _89
REMARK   40  A    between atoms: _94  and  _96
REMARK   41  A    between atoms: _96  and  _97
REMARK   42  A    between atoms: _96  and  _99
REMARK   43  A    between atoms: _99  and  _100
REMARK   44  A    between atoms: _103  and  _105
REMARK   45  A    between atoms: _105  and  _106
REMARK   46  A    between atoms: _109  and  _111
REMARK   47  A    between atoms: _111  and  _112
REMARK   48  A    between atoms: _114  and  _116
REMARK   49  A    between atoms: _116  and  _117
REMARK   50  A    between atoms: _116  and  _119
REMARK   51  A    between atoms: _119  and  _120
REMARK   52  A    between atoms: _120  and  _121
REMARK   53  A    between atoms: _121  and  _122
REMARK   54  A    between atoms: _131  and  _133
REMARK   55  A    between atoms: _133  and  _134
REMARK   56  A    between atoms: _136  and  _138
REMARK   57  A    between atoms: _138  and  _139
REMARK   58  A    between atoms: _138  and  _141
REMARK   59  A    between atoms: _141  and  _142
REMARK   60  A    between atoms: _142  and  _143
REMARK   61  A    between atoms: _143  and  _144
REMARK   62  A    between atoms: _153  and  _155
REMARK   63  A    between atoms: _155  and  _156
REMARK   64  A    between atoms: _155  and  _158
REMARK   65  A    between atoms: _158  and  _159
REMARK   66  A    between atoms: _164  and  _166
REMARK   67  A    between atoms: _166  and  _167
REMARK   68  A    between atoms: _169  and  _171
REMARK   69  A    between atoms: _171  and  _172
REMARK   70  A    between atoms: _171  and  _174
REMARK   71  A    between atoms: _174  and  _175
REMARK   72  A    between atoms: _175  and  _176
REMARK   73  A    between atoms: _176  and  _177
REMARK   74  A    between atoms: _186  and  _188
REMARK   75  A    between atoms: _188  and  _189
REMARK   76  A    between atoms: _191  and  _193
REMARK   77  A    between atoms: _193  and  _194
REMARK   78  A    between atoms: _193  and  _196
REMARK   79  A    between atoms: _196  and  _197
REMARK   80  A    between atoms: _207  and  _209
REMARK   81  A    between atoms: _209  and  _210
REMARK   82  A    between atoms: _213  and  _215
REMARK   83  A    between atoms: _215  and  _216
REMARK   84  A    between atoms: _219  and  _221
REMARK   85  A    between atoms: _221  and  _222
REMARK   86  A    between atoms: _221  and  _224
REMARK   87  A    between atoms: _224  and  _225
REMARK   88  A    between atoms: _228  and  _230
REMARK   89  A    between atoms: _230  and  _231
REMARK   90  A    between atoms: _230  and  _233
REMARK   91  A    between atoms: _233  and  _234
REMARK   92  A    between atoms: _234  and  _235
REMARK   93  A    between atoms: _240  and  _242
REMARK   94  A    between atoms: _242  and  _243
REMARK   95  A    between atoms: _242  and  _245
REMARK   96  A    between atoms: _245  and  _246
REMARK   97  A    between atoms: _249  and  _251
REMARK   98  A    between atoms: _251  and  _252
REMARK   99  A    between atoms: _251  and  _254
REMARK  100  A    between atoms: _254  and  _255
REMARK  101  A    between atoms: _258  and  _260
REMARK  102  A    between atoms: _260  and  _261
REMARK  103  A    between atoms: _260  and  _263
REMARK  104  A    between atoms: _263  and  _264
REMARK  105  A    between atoms: _267  and  _269
REMARK  106  A    between atoms: _269  and  _270
REMARK  107  A    between atoms: _269  and  _272
REMARK  108  A    between atoms: _272  and  _273
REMARK  109  A    between atoms: _275  and  _277
REMARK  110  A    between atoms: _277  and  _278
REMARK  111  A    between atoms: _277  and  _280
REMARK  112  A    between atoms: _283  and  _285
REMARK  113  A    between atoms: _285  and  _286
REMARK  114  A    between atoms: _285  and  _288
REMARK  115  A    between atoms: _288  and  _289
REMARK  116  A    between atoms: _289  and  _290
REMARK  117  A    between atoms: _290  and  _291
REMARK  118  A    between atoms: _291  and  _292
REMARK  119  A    between atoms: _296  and  _298
REMARK  120  A    between atoms: _298  and  _299
REMARK  121  A    between atoms: _298  and  _301
REMARK  122  A    between atoms: _301  and  _302
REMARK  123  A    between atoms: _313  and  _314
REMARK  124  A    between atoms: _319  and  _321
REMARK  125  A    between atoms: _321  and  _322
REMARK  126  A    between atoms: _321  and  _324
REMARK  127  A    between atoms: _324  and  _325
REMARK  128  A    between atoms: _330  and  _332
REMARK  129  A    between atoms: _332  and  _333
REMARK  130  A    between atoms: _332  and  _335
REMARK  131  A    between atoms: _335  and  _336
REMARK  132  A    between atoms: _339  and  _341
REMARK  133  A    between atoms: _341  and  _342
REMARK  134  A    between atoms: _341  and  _344
REMARK  135  A    between atoms: _347  and  _349
REMARK  136  A    between atoms: _349  and  _350
REMARK  137  A    between atoms: _352  and  _354
REMARK  138  A    between atoms: _354  and  _355
REMARK  139  A    between atoms: _354  and  _357
REMARK  140  A    between atoms: _357  and  _358
REMARK  141  A    between atoms: _358  and  _359
REMARK  142  A    between atoms: _359  and  _360
REMARK  143  A    between atoms: _360  and  _361
REMARK  144  A    between atoms: _365  and  _367
REMARK  145  A    between atoms: _367  and  _368
REMARK  146  A    between atoms: _367  and  _370
REMARK  147  A    between atoms: _370  and  _371
REMARK  148  A    between atoms: _374  and  _376
REMARK  149  A    between atoms: _376  and  _377
REMARK  150  A    between atoms: _380  and  _382
REMARK  151  A    between atoms: _382  and  _383
REMARK  152  A    between atoms: _385  and  _387
REMARK  153  A    between atoms: _387  and  _388
REMARK  154  A    between atoms: _387  and  _390
REMARK  155  A    between atoms: _390  and  _391
REMARK  156  A    between atoms: _394  and  _396
REMARK  157  A    between atoms: _396  and  _397
REMARK  158  A    between atoms: _396  and  _399
REMARK  159  A    between atoms: _399  and  _400
REMARK  160  A    between atoms: _403  and  _405
REMARK  161  A    between atoms: _405  and  _406
REMARK  162  A    between atoms: _409  and  _411
REMARK  163  A    between atoms: _411  and  _412
REMARK  164  A    between atoms: _411  and  _414
REMARK  165  A    between atoms: _414  and  _415
REMARK  166  A    between atoms: _415  and  _416
REMARK  167  A    between atoms: _419  and  _421
REMARK  168  A    between atoms: _421  and  _422
REMARK  169  A    between atoms: _421  and  _424
REMARK  170  A    between atoms: _427  and  _429
REMARK  171  A    between atoms: _429  and  _430
REMARK  172  A    between atoms: _429  and  _432
REMARK  173  A    between atoms: _432  and  _433
REMARK  174  A    between atoms: _436  and  _438
REMARK  175  A    between atoms: _438  and  _439
REMARK  176  A    between atoms: _441  and  _443
REMARK  177  A    between atoms: _443  and  _444
REMARK  178  A    between atoms: _443  and  _446
REMARK  179  A    between atoms: _449  and  _451
REMARK  180  A    between atoms: _451  and  _452
REMARK  181  A    between atoms: _454  and  _456
REMARK  182  A    between atoms: _456  and  _457
REMARK  183  A    between atoms: _456  and  _459
REMARK  184  A    between atoms: _459  and  _460
REMARK  185  A    between atoms: _463  and  _465
REMARK  186  A    between atoms: _465  and  _466
REMARK  187  A    between atoms: _465  and  _468
REMARK  188  A    between atoms: _468  and  _469
REMARK  189  A    between atoms: _474  and  _476
REMARK  190  A    between atoms: _476  and  _477
REMARK  191  A    between atoms: _476  and  _479
REMARK  192  A    between atoms: _482  and  _484
REMARK  193  A    between atoms: _484  and  _485
REMARK  194  A    between atoms: _484  and  _487
REMARK  195  A    between atoms: _487  and  _488
REMARK  196  A    between atoms: _488  and  _489
REMARK  197  A    between atoms: _494  and  _496
REMARK  198  A    between atoms: _496  and  _497
REMARK  199  A    between atoms: _501  and  _502
REMARK  200  A    between atoms: _507  and  _509
REMARK  201  A    between atoms: _509  and  _510
REMARK  202  A    between atoms: _509  and  _512
REMARK  203  A    between atoms: _512  and  _513
REMARK  204  A    between atoms: _513  and  _514
REMARK  205  A    between atoms: _517  and  _519
REMARK  206  A    between atoms: _519  and  _520
REMARK  207  A    between atoms: _519  and  _522
REMARK  208  A    between atoms: _525  and  _527
REMARK  209  A    between atoms: _527  and  _528
REMARK  210  A    between atoms: _527  and  _530
REMARK  211  A    between atoms: _530  and  _531
REMARK  212  A    between atoms: _535  and  _536
REMARK  213  A    between atoms: _541  and  _543
REMARK  214  A    between atoms: _543  and  _544
REMARK  215  A    between atoms: _543  and  _546
REMARK  216  A    between atoms: _546  and  _547
REMARK  217  A    between atoms: _550  and  _552
REMARK  218  A    between atoms: _552  and  _553
REMARK  219  A    between atoms: _556  and  _558
REMARK  220  A    between atoms: _558  and  _559
REMARK  221  A    between atoms: _558  and  _561
REMARK  222  A    between atoms: _561  and  _562
REMARK  223  A    between atoms: _565  and  _567
REMARK  224  A    between atoms: _567  and  _568
REMARK  225  A    between atoms: _567  and  _570
REMARK  226  A    between atoms: _570  and  _571
REMARK  227  A    between atoms: _573  and  _575
REMARK  228  A    between atoms: _575  and  _576
REMARK  229  A    between atoms: _578  and  _580
REMARK  230  A    between atoms: _580  and  _581
REMARK  231  A    between atoms: _580  and  _583
REMARK  232  A    between atoms: _583  and  _584
REMARK  233  A    between atoms: _587  and  _589
REMARK  234  A    between atoms: _589  and  _590
REMARK  235  A    between atoms: _589  and  _592
REMARK                            x       y       z     vdW  Elec       q    Type
REMARK                         _______ _______ _______ _____ _____    ______ ____
ROOT
ATOM      1  O   HOH     1       3.156  -8.718   6.532  0.00  0.00    +0.000 OA
ENDROOT
TORSDOF 0
REMARK  Name = ../refined-set-2016/4xtz/4xtz_pocket.pdb
REMARK  235 active torsions:
REMARK  status: ('A' for Active; 'I' for Inactive)
REMARK    1  A    between atoms: _1  and  _3
REMARK    2  A    between atoms: _3  and  _4
REMARK    3  A    between atoms: _3  and  _6
REMARK    4  A    between atoms: _6  and  _7
REMARK    5  A    between atoms: _10  and  _12
REMARK    6  A    between atoms: _12  and  _13
REMARK    7  A    between atoms: _15  and  _17
REMARK    8  A    between atoms: _17  and  _18
REMARK    9  A    between atoms: _17  and  _20
REMARK   10  A    between atoms: _20  and  _21
REMARK   11  A    between atoms: _23  and  _25
REMARK   12  A    between atoms: _25  and  _26
REMARK   13  A    between atoms: _25  and  _28
REMARK   14  A    between atoms: _28  and  _29
REMARK   15  A    between atoms: _32  and  _34
REMARK   16  A    between atoms: _34  and  _35
REMARK   17  A    between atoms: _34  and  _37
REMARK   18  A    between atoms: _37  and  _38
REMARK   19  A    between atoms: _43  and  _45
REMARK   20  A    between atoms: _45  and  _46
REMARK   21  A    between atoms: _49  and  _51
REMARK   22  A    between atoms: _51  and  _52
REMARK   23  A    between atoms: _51  and  _54
REMARK   24  A    between atoms: _54  and  _55
REMARK   25  A    between atoms: _58  and  _60
REMARK   26  A    between atoms: _60  and  _61
REMARK   27  A    between atoms: _60  and  _63
REMARK   28  A    between atoms: _63  and  _64
REMARK   29  A    between atoms: _67  and  _69
REMARK   30  A    between atoms: _69  and  _70
REMARK   31  A    between atoms: _69  and  _72
REMARK   32  A    between atoms: _72  and  _73
REMARK   33  A    between atoms: _76  and  _78
REMARK   34  A    between atoms: _78  and  _79
REMARK   35  A    between atoms: _82  and  _84
REMARK   36  A    between atoms: _84  and  _85
REMARK   37  A    between atoms: _84  and  _87
REMARK   38  A    between atoms: _87  and  _88
REMARK   39  A    between atoms: _88  and  _89
REMARK   40  A    between atoms: _94  and  _96
REMARK   41  A    between atoms: _96  and  _97
REMARK   42  A    between atoms: _96  and  _99
REMARK   43  A    between atoms: _99  and  _100
REMARK   44  A    between atoms: _103  and  _105
REMARK   45  A    between atoms: _105  and  _106
REMARK   46  A    between atoms: _109  and  _111
REMARK   47  A    between atoms: _111  and  _112
REMARK   48  A    between atoms: _114  and  _116
REMARK   49  A    between atoms: _116  and  _117
REMARK   50  A    between atoms: _116  and  _119
REMARK   51  A    between atoms: _119  and  _120
REMARK   52  A    between atoms: _120  and  _121
REMARK   53  A    between atoms: _121  and  _122
REMARK   54  A    between atoms: _131  and  _133
REMARK   55  A    between atoms: _133  and  _134
REMARK   56  A    between atoms: _136  and  _138
REMARK   57  A    between atoms: _138  and  _139
REMARK   58  A    between atoms: _138  and  _141
REMARK   59  A    between atoms: _141  and  _142
REMARK   60  A    between atoms: _142  and  _143
REMARK   61  A    between atoms: _143  and  _144
REMARK   62  A    between atoms: _153  and  _155
REMARK   63  A    between atoms: _155  and  _156
REMARK   64  A    between atoms: _155  and  _158
REMARK   65  A    between atoms: _158  and  _159
REMARK   66  A    between atoms: _164  and  _166
REMARK   67  A    between atoms: _166  and  _167
REMARK   68  A    between atoms: _169  and  _171
REMARK   69  A    between atoms: _171  and  _172
REMARK   70  A    between atoms: _171  and  _174
REMARK   71  A    between atoms: _174  and  _175
REMARK   72  A    between atoms: _175  and  _176
REMARK   73  A    between atoms: _176  and  _177
REMARK   74  A    between atoms: _186  and  _188
REMARK   75  A    between atoms: _188  and  _189
REMARK   76  A    between atoms: _191  and  _193
REMARK   77  A    between atoms: _193  and  _194
REMARK   78  A    between atoms: _193  and  _196
REMARK   79  A    between atoms: _196  and  _197
REMARK   80  A    between atoms: _207  and  _209
REMARK   81  A    between atoms: _209  and  _210
REMARK   82  A    between atoms: _213  and  _215
REMARK   83  A    between atoms: _215  and  _216
REMARK   84  A    between atoms: _219  and  _221
REMARK   85  A    between atoms: _221  and  _222
REMARK   86  A    between atoms: _221  and  _224
REMARK   87  A    between atoms: _224  and  _225
REMARK   88  A    between atoms: _228  and  _230
REMARK   89  A    between atoms: _230  and  _231
REMARK   90  A    between atoms: _230  and  _233
REMARK   91  A    between atoms: _233  and  _234
REMARK   92  A    between atoms: _234  and  _235
REMARK   93  A    between atoms: _240  and  _242
REMARK   94  A    between atoms: _242  and  _243
REMARK   95  A    between atoms: _242  and  _245
REMARK   96  A    between atoms: _245  and  _246
REMARK   97  A    between atoms: _249  and  _251
REMARK   98  A    between atoms: _251  and  _252
REMARK   99  A    between atoms: _251  and  _254
REMARK  100  A    between atoms: _254  and  _255
REMARK  101  A    between atoms: _258  and  _260
REMARK  102  A    between atoms: _260  and  _261
REMARK  103  A    between atoms: _260  and  _263
REMARK  104  A    between atoms: _263  and  _264
REMARK  105  A    between atoms: _267  and  _269
REMARK  106  A    between atoms: _269  and  _270
REMARK  107  A    between atoms: _269  and  _272
REMARK  108  A    between atoms: _272  and  _273
REMARK  109  A    between atoms: _275  and  _277
REMARK  110  A    between atoms: _277  and  _278
REMARK  111  A    between atoms: _277  and  _280
REMARK  112  A    between atoms: _283  and  _285
REMARK  113  A    between atoms: _285  and  _286
REMARK  114  A    between atoms: _285  and  _288
REMARK  115  A    between atoms: _288  and  _289
REMARK  116  A    between atoms: _289  and  _290
REMARK  117  A    between atoms: _290  and  _291
REMARK  118  A    between atoms: _291  and  _292
REMARK  119  A    between atoms: _296  and  _298
REMARK  120  A    between atoms: _298  and  _299
REMARK  121  A    between atoms: _298  and  _301
REMARK  122  A    between atoms: _301  and  _302
REMARK  123  A    between atoms: _313  and  _314
REMARK  124  A    between atoms: _319  and  _321
REMARK  125  A    between atoms: _321  and  _322
REMARK  126  A    between atoms: _321  and  _324
REMARK  127  A    between atoms: _324  and  _325
REMARK  128  A    between atoms: _330  and  _332
REMARK  129  A    between atoms: _332  and  _333
REMARK  130  A    between atoms: _332  and  _335
REMARK  131  A    between atoms: _335  and  _336
REMARK  132  A    between atoms: _339  and  _341
REMARK  133  A    between atoms: _341  and  _342
REMARK  134  A    between atoms: _341  and  _344
REMARK  135  A    between atoms: _347  and  _349
REMARK  136  A    between atoms: _349  and  _350
REMARK  137  A    between atoms: _352  and  _354
REMARK  138  A    between atoms: _354  and  _355
REMARK  139  A    between atoms: _354  and  _357
REMARK  140  A    between atoms: _357  and  _358
REMARK  141  A    between atoms: _358  and  _359
REMARK  142  A    between atoms: _359  and  _360
REMARK  143  A    between atoms: _360  and  _361
REMARK  144  A    between atoms: _365  and  _367
REMARK  145  A    between atoms: _367  and  _368
REMARK  146  A    between atoms: _367  and  _370
REMARK  147  A    between atoms: _370  and  _371
REMARK  148  A    between atoms: _374  and  _376
REMARK  149  A    between atoms: _376  and  _377
REMARK  150  A    between atoms: _380  and  _382
REMARK  151  A    between atoms: _382  and  _383
REMARK  152  A    between atoms: _385  and  _387
REMARK  153  A    between atoms: _387  and  _388
REMARK  154  A    between atoms: _387  and  _390
REMARK  155  A    between atoms: _390  and  _391
REMARK  156  A    between atoms: _394  and  _396
REMARK  157  A    between atoms: _396  and  _397
REMARK  158  A    between atoms: _396  and  _399
REMARK  159  A    between atoms: _399  and  _400
REMARK  160  A    between atoms: _403  and  _405
REMARK  161  A    between atoms: _405  and  _406
REMARK  162  A    between atoms: _409  and  _411
REMARK  163  A    between atoms: _411  and  _412
REMARK  164  A    between atoms: _411  and  _414
REMARK  165  A    between atoms: _414  and  _415
REMARK  166  A    between atoms: _415  and  _416
REMARK  167  A    between atoms: _419  and  _421
REMARK  168  A    between atoms: _421  and  _422
REMARK  169  A    between atoms: _421  and  _424
REMARK  170  A    between atoms: _427  and  _429
REMARK  171  A    between atoms: _429  and  _430
REMARK  172  A    between atoms: _429  and  _432
REMARK  173  A    between atoms: _432  and  _433
REMARK  174  A    between atoms: _436  and  _438
REMARK  175  A    between atoms: _438  and  _439
REMARK  176  A    between atoms: _441  and  _443
REMARK  177  A    between atoms: _443  and  _444
REMARK  178  A    between atoms: _443  and  _446
REMARK  179  A    between atoms: _449  and  _451
REMARK  180  A    between atoms: _451  and  _452
REMARK  181  A    between atoms: _454  and  _456
REMARK  182  A    between atoms: _456  and  _457
REMARK  183  A    between atoms: _456  and  _459
REMARK  184  A    between atoms: _459  and  _460
REMARK  185  A    between atoms: _463  and  _465
REMARK  186  A    between atoms: _465  and  _466
REMARK  187  A    between atoms: _465  and  _468
REMARK  188  A    between atoms: _468  and  _469
REMARK  189  A    between atoms: _474  and  _476
REMARK  190  A    between atoms: _476  and  _477
REMARK  191  A    between atoms: _476  and  _479
REMARK  192  A    between atoms: _482  and  _484
REMARK  193  A    between atoms: _484  and  _485
REMARK  194  A    between atoms: _484  and  _487
REMARK  195  A    between atoms: _487  and  _488
REMARK  196  A    between atoms: _488  and  _489
REMARK  197  A    between atoms: _494  and  _496
REMARK  198  A    between atoms: _496  and  _497
REMARK  199  A    between atoms: _501  and  _502
REMARK  200  A    between atoms: _507  and  _509
REMARK  201  A    between atoms: _509  and  _510
REMARK  202  A    between atoms: _509  and  _512
REMARK  203  A    between atoms: _512  and  _513
REMARK  204  A    between atoms: _513  and  _514
REMARK  205  A    between atoms: _517  and  _519
REMARK  206  A    between atoms: _519  and  _520
REMARK  207  A    between atoms: _519  and  _522
REMARK  208  A    between atoms: _525  and  _527
REMARK  209  A    between atoms: _527  and  _528
REMARK  210  A    between atoms: _527  and  _530
REMARK  211  A    between atoms: _530  and  _531
REMARK  212  A    between atoms: _535  and  _536
REMARK  213  A    between atoms: _541  and  _543
REMARK  214  A    between atoms: _543  and  _544
REMARK  215  A    between atoms: _543  and  _546
REMARK  216  A    between atoms: _546  and  _547
REMARK  217  A    between atoms: _550  and  _552
REMARK  218  A    between atoms: _552  and  _553
REMARK  219  A    between atoms: _556  and  _558
REMARK  220  A    between atoms: _558  and  _559
REMARK  221  A    between atoms: _558  and  _561
REMARK  222  A    between atoms: _561  and  _562
REMARK  223  A    between atoms: _565  and  _567
REMARK  224  A    between atoms: _567  and  _568
REMARK  225  A    between atoms: _567  and  _570
REMARK  226  A    between atoms: _570  and  _571
REMARK  227  A    between atoms: _573  and  _575
REMARK  228  A    between atoms: _575  and  _576
REMARK  229  A    between atoms: _578  and  _580
REMARK  230  A    between atoms: _580  and  _581
REMARK  231  A    between atoms: _580  and  _583
REMARK  232  A    between atoms: _583  and  _584
REMARK  233  A    between atoms: _587  and  _589
REMARK  234  A    between atoms: _589  and  _590
REMARK  235  A    between atoms: _589  and  _592
REMARK                            x       y       z     vdW  Elec       q    Type
REMARK                         _______ _______ _______ _____ _____    ______ ____
ROOT
ATOM      1  O   HOH     1      -8.588  -1.583   1.189  0.00  0.00    +0.000 OA
ENDROOT
TORSDOF 0
REMARK  Name = ../refined-set-2016/4xtz/4xtz_pocket.pdb
REMARK  235 active torsions:
REMARK  status: ('A' for Active; 'I' for Inactive)
REMARK    1  A    between atoms: _1  and  _3
REMARK    2  A    between atoms: _3  and  _4
REMARK    3  A    between atoms: _3  and  _6
REMARK    4  A    between atoms: _6  and  _7
REMARK    5  A    between atoms: _10  and  _12
REMARK    6  A    between atoms: _12  and  _13
REMARK    7  A    between atoms: _15  and  _17
REMARK    8  A    between atoms: _17  and  _18
REMARK    9  A    between atoms: _17  and  _20
REMARK   10  A    between atoms: _20  and  _21
REMARK   11  A    between atoms: _23  and  _25
REMARK   12  A    between atoms: _25  and  _26
REMARK   13  A    between atoms: _25  and  _28
REMARK   14  A    between atoms: _28  and  _29
REMARK   15  A    between atoms: _32  and  _34
REMARK   16  A    between atoms: _34  and  _35
REMARK   17  A    between atoms: _34  and  _37
REMARK   18  A    between atoms: _37  and  _38
REMARK   19  A    between atoms: _43  and  _45
REMARK   20  A    between atoms: _45  and  _46
REMARK   21  A    between atoms: _49  and  _51
REMARK   22  A    between atoms: _51  and  _52
REMARK   23  A    between atoms: _51  and  _54
REMARK   24  A    between atoms: _54  and  _55
REMARK   25  A    between atoms: _58  and  _60
REMARK   26  A    between atoms: _60  and  _61
REMARK   27  A    between atoms: _60  and  _63
REMARK   28  A    between atoms: _63  and  _64
REMARK   29  A    between atoms: _67  and  _69
REMARK   30  A    between atoms: _69  and  _70
REMARK   31  A    between atoms: _69  and  _72
REMARK   32  A    between atoms: _72  and  _73
REMARK   33  A    between atoms: _76  and  _78
REMARK   34  A    between atoms: _78  and  _79
REMARK   35  A    between atoms: _82  and  _84
REMARK   36  A    between atoms: _84  and  _85
REMARK   37  A    between atoms: _84  and  _87
REMARK   38  A    between atoms: _87  and  _88
REMARK   39  A    between atoms: _88  and  _89
REMARK   40  A    between atoms: _94  and  _96
REMARK   41  A    between atoms: _96  and  _97
REMARK   42  A    between atoms: _96  and  _99
REMARK   43  A    between atoms: _99  and  _100
REMARK   44  A    between atoms: _103  and  _105
REMARK   45  A    between atoms: _105  and  _106
REMARK   46  A    between atoms: _109  and  _111
REMARK   47  A    between atoms: _111  and  _112
REMARK   48  A    between atoms: _114  and  _116
REMARK   49  A    between atoms: _116  and  _117
REMARK   50  A    between atoms: _116  and  _119
REMARK   51  A    between atoms: _119  and  _120
REMARK   52  A    between atoms: _120  and  _121
REMARK   53  A    between atoms: _121  and  _122
REMARK   54  A    between atoms: _131  and  _133
REMARK   55  A    between atoms: _133  and  _134
REMARK   56  A    between atoms: _136  and  _138
REMARK   57  A    between atoms: _138  and  _139
REMARK   58  A    between atoms: _138  and  _141
REMARK   59  A    between atoms: _141  and  _142
REMARK   60  A    between atoms: _142  and  _143
REMARK   61  A    between atoms: _143  and  _144
REMARK   62  A    between atoms: _153  and  _155
REMARK   63  A    between atoms: _155  and  _156
REMARK   64  A    between atoms: _155  and  _158
REMARK   65  A    between atoms: _158  and  _159
REMARK   66  A    between atoms: _164  and  _166
REMARK   67  A    between atoms: _166  and  _167
REMARK   68  A    between atoms: _169  and  _171
REMARK   69  A    between atoms: _171  and  _172
REMARK   70  A    between atoms: _171  and  _174
REMARK   71  A    between atoms: _174  and  _175
REMARK   72  A    between atoms: _175  and  _176
REMARK   73  A    between atoms: _176  and  _177
REMARK   74  A    between atoms: _186  and  _188
REMARK   75  A    between atoms: _188  and  _189
REMARK   76  A    between atoms: _191  and  _193
REMARK   77  A    between atoms: _193  and  _194
REMARK   78  A    between atoms: _193  and  _196
REMARK   79  A    between atoms: _196  and  _197
REMARK   80  A    between atoms: _207  and  _209
REMARK   81  A    between atoms: _209  and  _210
REMARK   82  A    between atoms: _213  and  _215
REMARK   83  A    between atoms: _215  and  _216
REMARK   84  A    between atoms: _219  and  _221
REMARK   85  A    between atoms: _221  and  _222
REMARK   86  A    between atoms: _221  and  _224
REMARK   87  A    between atoms: _224  and  _225
REMARK   88  A    between atoms: _228  and  _230
REMARK   89  A    between atoms: _230  and  _231
REMARK   90  A    between atoms: _230  and  _233
REMARK   91  A    between atoms: _233  and  _234
REMARK   92  A    between atoms: _234  and  _235
REMARK   93  A    between atoms: _240  and  _242
REMARK   94  A    between atoms: _242  and  _243
REMARK   95  A    between atoms: _242  and  _245
REMARK   96  A    between atoms: _245  and  _246
REMARK   97  A    between atoms: _249  and  _251
REMARK   98  A    between atoms: _251  and  _252
REMARK   99  A    between atoms: _251  and  _254
REMARK  100  A    between atoms: _254  and  _255
REMARK  101  A    between atoms: _258  and  _260
REMARK  102  A    between atoms: _260  and  _261
REMARK  103  A    between atoms: _260  and  _263
REMARK  104  A    between atoms: _263  and  _264
REMARK  105  A    between atoms: _267  and  _269
REMARK  106  A    between atoms: _269  and  _270
REMARK  107  A    between atoms: _269  and  _272
REMARK  108  A    between atoms: _272  and  _273
REMARK  109  A    between atoms: _275  and  _277
REMARK  110  A    between atoms: _277  and  _278
REMARK  111  A    between atoms: _277  and  _280
REMARK  112  A    between atoms: _283  and  _285
REMARK  113  A    between atoms: _285  and  _286
REMARK  114  A    between atoms: _285  and  _288
REMARK  115  A    between atoms: _288  and  _289
REMARK  116  A    between atoms: _289  and  _290
REMARK  117  A    between atoms: _290  and  _291
REMARK  118  A    between atoms: _291  and  _292
REMARK  119  A    between atoms: _296  and  _298
REMARK  120  A    between atoms: _298  and  _299
REMARK  121  A    between atoms: _298  and  _301
REMARK  122  A    between atoms: _301  and  _302
REMARK  123  A    between atoms: _313  and  _314
REMARK  124  A    between atoms: _319  and  _321
REMARK  125  A    between atoms: _321  and  _322
REMARK  126  A    between atoms: _321  and  _324
REMARK  127  A    between atoms: _324  and  _325
REMARK  128  A    between atoms: _330  and  _332
REMARK  129  A    between atoms: _332  and  _333
REMARK  130  A    between atoms: _332  and  _335
REMARK  131  A    between atoms: _335  and  _336
REMARK  132  A    between atoms: _339  and  _341
REMARK  133  A    between atoms: _341  and  _342
REMARK  134  A    between atoms: _341  and  _344
REMARK  135  A    between atoms: _347  and  _349
REMARK  136  A    between atoms: _349  and  _350
REMARK  137  A    between atoms: _352  and  _354
REMARK  138  A    between atoms: _354  and  _355
REMARK  139  A    between atoms: _354  and  _357
REMARK  140  A    between atoms: _357  and  _358
REMARK  141  A    between atoms: _358  and  _359
REMARK  142  A    between atoms: _359  and  _360
REMARK  143  A    between atoms: _360  and  _361
REMARK  144  A    between atoms: _365  and  _367
REMARK  145  A    between atoms: _367  and  _368
REMARK  146  A    between atoms: _367  and  _370
REMARK  147  A    between atoms: _370  and  _371
REMARK  148  A    between atoms: _374  and  _376
REMARK  149  A    between atoms: _376  and  _377
REMARK  150  A    between atoms: _380  and  _382
REMARK  151  A    between atoms: _382  and  _383
REMARK  152  A    between atoms: _385  and  _387
REMARK  153  A    between atoms: _387  and  _388
REMARK  154  A    between atoms: _387  and  _390
REMARK  155  A    between atoms: _390  and  _391
REMARK  156  A    between atoms: _394  and  _396
REMARK  157  A    between atoms: _396  and  _397
REMARK  158  A    between atoms: _396  and  _399
REMARK  159  A    between atoms: _399  and  _400
REMARK  160  A    between atoms: _403  and  _405
REMARK  161  A    between atoms: _405  and  _406
REMARK  162  A    between atoms: _409  and  _411
REMARK  163  A    between atoms: _411  and  _412
REMARK  164  A    between atoms: _411  and  _414
REMARK  165  A    between atoms: _414  and  _415
REMARK  166  A    between atoms: _415  and  _416
REMARK  167  A    between atoms: _419  and  _421
REMARK  168  A    between atoms: _421  and  _422
REMARK  169  A    between atoms: _421  and  _424
REMARK  170  A    between atoms: _427  and  _429
REMARK  171  A    between atoms: _429  and  _430
REMARK  172  A    between atoms: _429  and  _432
REMARK  173  A    between atoms: _432  and  _433
REMARK  174  A    between atoms: _436  and  _438
REMARK  175  A    between atoms: _438  and  _439
REMARK  176  A    between atoms: _441  and  _443
REMARK  177  A    between atoms: _443  and  _444
REMARK  178  A    between atoms: _443  and  _446
REMARK  179  A    between atoms: _449  and  _451
REMARK  180  A    between atoms: _451  and  _452
REMARK  181  A    between atoms: _454  and  _456
REMARK  182  A    between atoms: _456  and  _457
REMARK  183  A    between atoms: _456  and  _459
REMARK  184  A    between atoms: _459  and  _460
REMARK  185  A    between atoms: _463  and  _465
REMARK  186  A    between atoms: _465  and  _466
REMARK  187  A    between atoms: _465  and  _468
REMARK  188  A    between atoms: _468  and  _469
REMARK  189  A    between atoms: _474  and  _476
REMARK  190  A    between atoms: _476  and  _477
REMARK  191  A    between atoms: _476  and  _479
REMARK  192  A    between atoms: _482  and  _484
REMARK  193  A    between atoms: _484  and  _485
REMARK  194  A    between atoms: _484  and  _487
REMARK  195  A    between atoms: _487  and  _488
REMARK  196  A    between atoms: _488  and  _489
REMARK  197  A    between atoms: _494  and  _496
REMARK  198  A    between atoms: _496  and  _497
REMARK  199  A    between atoms: _501  and  _502
REMARK  200  A    between atoms: _507  and  _509
REMARK  201  A    between atoms: _509  and  _510
REMARK  202  A    between atoms: _509  and  _512
REMARK  203  A    between atoms: _512  and  _513
REMARK  204  A    between atoms: _513  and  _514
REMARK  205  A    between atoms: _517  and  _519
REMARK  206  A    between atoms: _519  and  _520
REMARK  207  A    between atoms: _519  and  _522
REMARK  208  A    between atoms: _525  and  _527
REMARK  209  A    between atoms: _527  and  _528
REMARK  210  A    between atoms: _527  and  _530
REMARK  211  A    between atoms: _530  and  _531
REMARK  212  A    between atoms: _535  and  _536
REMARK  213  A    between atoms: _541  and  _543
REMARK  214  A    between atoms: _543  and  _544
REMARK  215  A    between atoms: _543  and  _546
REMARK  216  A    between atoms: _546  and  _547
REMARK  217  A    between atoms: _550  and  _552
REMARK  218  A    between atoms: _552  and  _553
REMARK  219  A    between atoms: _556  and  _558
REMARK  220  A    between atoms: _558  and  _559
REMARK  221  A    between atoms: _558  and  _561
REMARK  222  A    between atoms: _561  and  _562
REMARK  223  A    between atoms: _565  and  _567
REMARK  224  A    between atoms: _567  and  _568
REMARK  225  A    between atoms: _567  and  _570
REMARK  226  A    between atoms: _570  and  _571
REMARK  227  A    between atoms: _573  and  _575
REMARK  228  A    between atoms: _575  and  _576
REMARK  229  A    between atoms: _578  and  _580
REMARK  230  A    between atoms: _580  and  _581
REMARK  231  A    between atoms: _580  and  _583
REMARK  232  A    between atoms: _583  and  _584
REMARK  233  A    between atoms: _587  and  _589
REMARK  234  A    between atoms: _589  and  _590
REMARK  235  A    between atoms: _589  and  _592
REMARK                            x       y       z     vdW  Elec       q    Type
REMARK                         _______ _______ _______ _____ _____    ______ ____
ROOT
ATOM      1  O   HOH     1       3.544  -2.092  13.522  0.00  0.00    +0.000 OA
ENDROOT
TORSDOF 0
REMARK  Name = ../refined-set-2016/4xtz/4xtz_pocket.pdb
REMARK  235 active torsions:
REMARK  status: ('A' for Active; 'I' for Inactive)
REMARK    1  A    between atoms: _1  and  _3
REMARK    2  A    between atoms: _3  and  _4
REMARK    3  A    between atoms: _3  and  _6
REMARK    4  A    between atoms: _6  and  _7
REMARK    5  A    between atoms: _10  and  _12
REMARK    6  A    between atoms: _12  and  _13
REMARK    7  A    between atoms: _15  and  _17
REMARK    8  A    between atoms: _17  and  _18
REMARK    9  A    between atoms: _17  and  _20
REMARK   10  A    between atoms: _20  and  _21
REMARK   11  A    between atoms: _23  and  _25
REMARK   12  A    between atoms: _25  and  _26
REMARK   13  A    between atoms: _25  and  _28
REMARK   14  A    between atoms: _28  and  _29
REMARK   15  A    between atoms: _32  and  _34
REMARK   16  A    between atoms: _34  and  _35
REMARK   17  A    between atoms: _34  and  _37
REMARK   18  A    between atoms: _37  and  _38
REMARK   19  A    between atoms: _43  and  _45
REMARK   20  A    between atoms: _45  and  _46
REMARK   21  A    between atoms: _49  and  _51
REMARK   22  A    between atoms: _51  and  _52
REMARK   23  A    between atoms: _51  and  _54
REMARK   24  A    between atoms: _54  and  _55
REMARK   25  A    between atoms: _58  and  _60
REMARK   26  A    between atoms: _60  and  _61
REMARK   27  A    between atoms: _60  and  _63
REMARK   28  A    between atoms: _63  and  _64
REMARK   29  A    between atoms: _67  and  _69
REMARK   30  A    between atoms: _69  and  _70
REMARK   31  A    between atoms: _69  and  _72
REMARK   32  A    between atoms: _72  and  _73
REMARK   33  A    between atoms: _76  and  _78
REMARK   34  A    between atoms: _78  and  _79
REMARK   35  A    between atoms: _82  and  _84
REMARK   36  A    between atoms: _84  and  _85
REMARK   37  A    between atoms: _84  and  _87
REMARK   38  A    between atoms: _87  and  _88
REMARK   39  A    between atoms: _88  and  _89
REMARK   40  A    between atoms: _94  and  _96
REMARK   41  A    between atoms: _96  and  _97
REMARK   42  A    between atoms: _96  and  _99
REMARK   43  A    between atoms: _99  and  _100
REMARK   44  A    between atoms: _103  and  _105
REMARK   45  A    between atoms: _105  and  _106
REMARK   46  A    between atoms: _109  and  _111
REMARK   47  A    between atoms: _111  and  _112
REMARK   48  A    between atoms: _114  and  _116
REMARK   49  A    between atoms: _116  and  _117
REMARK   50  A    between atoms: _116  and  _119
REMARK   51  A    between atoms: _119  and  _120
REMARK   52  A    between atoms: _120  and  _121
REMARK   53  A    between atoms: _121  and  _122
REMARK   54  A    between atoms: _131  and  _133
REMARK   55  A    between atoms: _133  and  _134
REMARK   56  A    between atoms: _136  and  _138
REMARK   57  A    between atoms: _138  and  _139
REMARK   58  A    between atoms: _138  and  _141
REMARK   59  A    between atoms: _141  and  _142
REMARK   60  A    between atoms: _142  and  _143
REMARK   61  A    between atoms: _143  and  _144
REMARK   62  A    between atoms: _153  and  _155
REMARK   63  A    between atoms: _155  and  _156
REMARK   64  A    between atoms: _155  and  _158
REMARK   65  A    between atoms: _158  and  _159
REMARK   66  A    between atoms: _164  and  _166
REMARK   67  A    between atoms: _166  and  _167
REMARK   68  A    between atoms: _169  and  _171
REMARK   69  A    between atoms: _171  and  _172
REMARK   70  A    between atoms: _171  and  _174
REMARK   71  A    between atoms: _174  and  _175
REMARK   72  A    between atoms: _175  and  _176
REMARK   73  A    between atoms: _176  and  _177
REMARK   74  A    between atoms: _186  and  _188
REMARK   75  A    between atoms: _188  and  _189
REMARK   76  A    between atoms: _191  and  _193
REMARK   77  A    between atoms: _193  and  _194
REMARK   78  A    between atoms: _193  and  _196
REMARK   79  A    between atoms: _196  and  _197
REMARK   80  A    between atoms: _207  and  _209
REMARK   81  A    between atoms: _209  and  _210
REMARK   82  A    between atoms: _213  and  _215
REMARK   83  A    between atoms: _215  and  _216
REMARK   84  A    between atoms: _219  and  _221
REMARK   85  A    between atoms: _221  and  _222
REMARK   86  A    between atoms: _221  and  _224
REMARK   87  A    between atoms: _224  and  _225
REMARK   88  A    between atoms: _228  and  _230
REMARK   89  A    between atoms: _230  and  _231
REMARK   90  A    between atoms: _230  and  _233
REMARK   91  A    between atoms: _233  and  _234
REMARK   92  A    between atoms: _234  and  _235
REMARK   93  A    between atoms: _240  and  _242
REMARK   94  A    between atoms: _242  and  _243
REMARK   95  A    between atoms: _242  and  _245
REMARK   96  A    between atoms: _245  and  _246
REMARK   97  A    between atoms: _249  and  _251
REMARK   98  A    between atoms: _251  and  _252
REMARK   99  A    between atoms: _251  and  _254
REMARK  100  A    between atoms: _254  and  _255
REMARK  101  A    between atoms: _258  and  _260
REMARK  102  A    between atoms: _260  and  _261
REMARK  103  A    between atoms: _260  and  _263
REMARK  104  A    between atoms: _263  and  _264
REMARK  105  A    between atoms: _267  and  _269
REMARK  106  A    between atoms: _269  and  _270
REMARK  107  A    between atoms: _269  and  _272
REMARK  108  A    between atoms: _272  and  _273
REMARK  109  A    between atoms: _275  and  _277
REMARK  110  A    between atoms: _277  and  _278
REMARK  111  A    between atoms: _277  and  _280
REMARK  112  A    between atoms: _283  and  _285
REMARK  113  A    between atoms: _285  and  _286
REMARK  114  A    between atoms: _285  and  _288
REMARK  115  A    between atoms: _288  and  _289
REMARK  116  A    between atoms: _289  and  _290
REMARK  117  A    between atoms: _290  and  _291
REMARK  118  A    between atoms: _291  and  _292
REMARK  119  A    between atoms: _296  and  _298
REMARK  120  A    between atoms: _298  and  _299
REMARK  121  A    between atoms: _298  and  _301
REMARK  122  A    between atoms: _301  and  _302
REMARK  123  A    between atoms: _313  and  _314
REMARK  124  A    between atoms: _319  and  _321
REMARK  125  A    between atoms: _321  and  _322
REMARK  126  A    between atoms: _321  and  _324
REMARK  127  A    between atoms: _324  and  _325
REMARK  128  A    between atoms: _330  and  _332
REMARK  129  A    between atoms: _332  and  _333
REMARK  130  A    between atoms: _332  and  _335
REMARK  131  A    between atoms: _335  and  _336
REMARK  132  A    between atoms: _339  and  _341
REMARK  133  A    between atoms: _341  and  _342
REMARK  134  A    between atoms: _341  and  _344
REMARK  135  A    between atoms: _347  and  _349
REMARK  136  A    between atoms: _349  and  _350
REMARK  137  A    between atoms: _352  and  _354
REMARK  138  A    between atoms: _354  and  _355
REMARK  139  A    between atoms: _354  and  _357
REMARK  140  A    between atoms: _357  and  _358
REMARK  141  A    between atoms: _358  and  _359
REMARK  142  A    between atoms: _359  and  _360
REMARK  143  A    between atoms: _360  and  _361
REMARK  144  A    between atoms: _365  and  _367
REMARK  145  A    between atoms: _367  and  _368
REMARK  146  A    between atoms: _367  and  _370
REMARK  147  A    between atoms: _370  and  _371
REMARK  148  A    between atoms: _374  and  _376
REMARK  149  A    between atoms: _376  and  _377
REMARK  150  A    between atoms: _380  and  _382
REMARK  151  A    between atoms: _382  and  _383
REMARK  152  A    between atoms: _385  and  _387
REMARK  153  A    between atoms: _387  and  _388
REMARK  154  A    between atoms: _387  and  _390
REMARK  155  A    between atoms: _390  and  _391
REMARK  156  A    between atoms: _394  and  _396
REMARK  157  A    between atoms: _396  and  _397
REMARK  158  A    between atoms: _396  and  _399
REMARK  159  A    between atoms: _399  and  _400
REMARK  160  A    between atoms: _403  and  _405
REMARK  161  A    between atoms: _405  and  _406
REMARK  162  A    between atoms: _409  and  _411
REMARK  163  A    between atoms: _411  and  _412
REMARK  164  A    between atoms: _411  and  _414
REMARK  165  A    between atoms: _414  and  _415
REMARK  166  A    between atoms: _415  and  _416
REMARK  167  A    between atoms: _419  and  _421
REMARK  168  A    between atoms: _421  and  _422
REMARK  169  A    between atoms: _421  and  _424
REMARK  170  A    between atoms: _427  and  _429
REMARK  171  A    between atoms: _429  and  _430
REMARK  172  A    between atoms: _429  and  _432
REMARK  173  A    between atoms: _432  and  _433
REMARK  174  A    between atoms: _436  and  _438
REMARK  175  A    between atoms: _438  and  _439
REMARK  176  A    between atoms: _441  and  _443
REMARK  177  A    between atoms: _443  and  _444
REMARK  178  A    between atoms: _443  and  _446
REMARK  179  A    between atoms: _449  and  _451
REMARK  180  A    between atoms: _451  and  _452
REMARK  181  A    between atoms: _454  and  _456
REMARK  182  A    between atoms: _456  and  _457
REMARK  183  A    between atoms: _456  and  _459
REMARK  184  A    between atoms: _459  and  _460
REMARK  185  A    between atoms: _463  and  _465
REMARK  186  A    between atoms: _465  and  _466
REMARK  187  A    between atoms: _465  and  _468
REMARK  188  A    between atoms: _468  and  _469
REMARK  189  A    between atoms: _474  and  _476
REMARK  190  A    between atoms: _476  and  _477
REMARK  191  A    between atoms: _476  and  _479
REMARK  192  A    between atoms: _482  and  _484
REMARK  193  A    between atoms: _484  and  _485
REMARK  194  A    between atoms: _484  and  _487
REMARK  195  A    between atoms: _487  and  _488
REMARK  196  A    between atoms: _488  and  _489
REMARK  197  A    between atoms: _494  and  _496
REMARK  198  A    between atoms: _496  and  _497
REMARK  199  A    between atoms: _501  and  _502
REMARK  200  A    between atoms: _507  and  _509
REMARK  201  A    between atoms: _509  and  _510
REMARK  202  A    between atoms: _509  and  _512
REMARK  203  A    between atoms: _512  and  _513
REMARK  204  A    between atoms: _513  and  _514
REMARK  205  A    between atoms: _517  and  _519
REMARK  206  A    between atoms: _519  and  _520
REMARK  207  A    between atoms: _519  and  _522
REMARK  208  A    between atoms: _525  and  _527
REMARK  209  A    between atoms: _527  and  _528
REMARK  210  A    between atoms: _527  and  _530
REMARK  211  A    between atoms: _530  and  _531
REMARK  212  A    between atoms: _535  and  _536
REMARK  213  A    between atoms: _541  and  _543
REMARK  214  A    between atoms: _543  and  _544
REMARK  215  A    between atoms: _543  and  _546
REMARK  216  A    between atoms: _546  and  _547
REMARK  217  A    between atoms: _550  and  _552
REMARK  218  A    between atoms: _552  and  _553
REMARK  219  A    between atoms: _556  and  _558
REMARK  220  A    between atoms: _558  and  _559
REMARK  221  A    between atoms: _558  and  _561
REMARK  222  A    between atoms: _561  and  _562
REMARK  223  A    between atoms: _565  and  _567
REMARK  224  A    between atoms: _567  and  _568
REMARK  225  A    between atoms: _567  and  _570
REMARK  226  A    between atoms: _570  and  _571
REMARK  227  A    between atoms: _573  and  _575
REMARK  228  A    between atoms: _575  and  _576
REMARK  229  A    between atoms: _578  and  _580
REMARK  230  A    between atoms: _580  and  _581
REMARK  231  A    between atoms: _580  and  _583
REMARK  232  A    between atoms: _583  and  _584
REMARK  233  A    between atoms: _587  and  _589
REMARK  234  A    between atoms: _589  and  _590
REMARK  235  A    between atoms: _589  and  _592
REMARK                            x       y       z     vdW  Elec       q    Type
REMARK                         _______ _______ _______ _____ _____    ______ ____
ROOT
ATOM      1  O   HOH     1       0.758 -10.566   4.051  0.00  0.00    +0.000 OA
ENDROOT
TORSDOF 0
REMARK  Name = ../refined-set-2016/4xtz/4xtz_pocket.pdb
REMARK  235 active torsions:
REMARK  status: ('A' for Active; 'I' for Inactive)
REMARK    1  A    between atoms: _1  and  _3
REMARK    2  A    between atoms: _3  and  _4
REMARK    3  A    between atoms: _3  and  _6
REMARK    4  A    between atoms: _6  and  _7
REMARK    5  A    between atoms: _10  and  _12
REMARK    6  A    between atoms: _12  and  _13
REMARK    7  A    between atoms: _15  and  _17
REMARK    8  A    between atoms: _17  and  _18
REMARK    9  A    between atoms: _17  and  _20
REMARK   10  A    between atoms: _20  and  _21
REMARK   11  A    between atoms: _23  and  _25
REMARK   12  A    between atoms: _25  and  _26
REMARK   13  A    between atoms: _25  and  _28
REMARK   14  A    between atoms: _28  and  _29
REMARK   15  A    between atoms: _32  and  _34
REMARK   16  A    between atoms: _34  and  _35
REMARK   17  A    between atoms: _34  and  _37
REMARK   18  A    between atoms: _37  and  _38
REMARK   19  A    between atoms: _43  and  _45
REMARK   20  A    between atoms: _45  and  _46
REMARK   21  A    between atoms: _49  and  _51
REMARK   22  A    between atoms: _51  and  _52
REMARK   23  A    between atoms: _51  and  _54
REMARK   24  A    between atoms: _54  and  _55
REMARK   25  A    between atoms: _58  and  _60
REMARK   26  A    between atoms: _60  and  _61
REMARK   27  A    between atoms: _60  and  _63
REMARK   28  A    between atoms: _63  and  _64
REMARK   29  A    between atoms: _67  and  _69
REMARK   30  A    between atoms: _69  and  _70
REMARK   31  A    between atoms: _69  and  _72
REMARK   32  A    between atoms: _72  and  _73
REMARK   33  A    between atoms: _76  and  _78
REMARK   34  A    between atoms: _78  and  _79
REMARK   35  A    between atoms: _82  and  _84
REMARK   36  A    between atoms: _84  and  _85
REMARK   37  A    between atoms: _84  and  _87
REMARK   38  A    between atoms: _87  and  _88
REMARK   39  A    between atoms: _88  and  _89
REMARK   40  A    between atoms: _94  and  _96
REMARK   41  A    between atoms: _96  and  _97
REMARK   42  A    between atoms: _96  and  _99
REMARK   43  A    between atoms: _99  and  _100
REMARK   44  A    between atoms: _103  and  _105
REMARK   45  A    between atoms: _105  and  _106
REMARK   46  A    between atoms: _109  and  _111
REMARK   47  A    between atoms: _111  and  _112
REMARK   48  A    between atoms: _114  and  _116
REMARK   49  A    between atoms: _116  and  _117
REMARK   50  A    between atoms: _116  and  _119
REMARK   51  A    between atoms: _119  and  _120
REMARK   52  A    between atoms: _120  and  _121
REMARK   53  A    between atoms: _121  and  _122
REMARK   54  A    between atoms: _131  and  _133
REMARK   55  A    between atoms: _133  and  _134
REMARK   56  A    between atoms: _136  and  _138
REMARK   57  A    between atoms: _138  and  _139
REMARK   58  A    between atoms: _138  and  _141
REMARK   59  A    between atoms: _141  and  _142
REMARK   60  A    between atoms: _142  and  _143
REMARK   61  A    between atoms: _143  and  _144
REMARK   62  A    between atoms: _153  and  _155
REMARK   63  A    between atoms: _155  and  _156
REMARK   64  A    between atoms: _155  and  _158
REMARK   65  A    between atoms: _158  and  _159
REMARK   66  A    between atoms: _164  and  _166
REMARK   67  A    between atoms: _166  and  _167
REMARK   68  A    between atoms: _169  and  _171
REMARK   69  A    between atoms: _171  and  _172
REMARK   70  A    between atoms: _171  and  _174
REMARK   71  A    between atoms: _174  and  _175
REMARK   72  A    between atoms: _175  and  _176
REMARK   73  A    between atoms: _176  and  _177
REMARK   74  A    between atoms: _186  and  _188
REMARK   75  A    between atoms: _188  and  _189
REMARK   76  A    between atoms: _191  and  _193
REMARK   77  A    between atoms: _193  and  _194
REMARK   78  A    between atoms: _193  and  _196
REMARK   79  A    between atoms: _196  and  _197
REMARK   80  A    between atoms: _207  and  _209
REMARK   81  A    between atoms: _209  and  _210
REMARK   82  A    between atoms: _213  and  _215
REMARK   83  A    between atoms: _215  and  _216
REMARK   84  A    between atoms: _219  and  _221
REMARK   85  A    between atoms: _221  and  _222
REMARK   86  A    between atoms: _221  and  _224
REMARK   87  A    between atoms: _224  and  _225
REMARK   88  A    between atoms: _228  and  _230
REMARK   89  A    between atoms: _230  and  _231
REMARK   90  A    between atoms: _230  and  _233
REMARK   91  A    between atoms: _233  and  _234
REMARK   92  A    between atoms: _234  and  _235
REMARK   93  A    between atoms: _240  and  _242
REMARK   94  A    between atoms: _242  and  _243
REMARK   95  A    between atoms: _242  and  _245
REMARK   96  A    between atoms: _245  and  _246
REMARK   97  A    between atoms: _249  and  _251
REMARK   98  A    between atoms: _251  and  _252
REMARK   99  A    between atoms: _251  and  _254
REMARK  100  A    between atoms: _254  and  _255
REMARK  101  A    between atoms: _258  and  _260
REMARK  102  A    between atoms: _260  and  _261
REMARK  103  A    between atoms: _260  and  _263
REMARK  104  A    between atoms: _263  and  _264
REMARK  105  A    between atoms: _267  and  _269
REMARK  106  A    between atoms: _269  and  _270
REMARK  107  A    between atoms: _269  and  _272
REMARK  108  A    between atoms: _272  and  _273
REMARK  109  A    between atoms: _275  and  _277
REMARK  110  A    between atoms: _277  and  _278
REMARK  111  A    between atoms: _277  and  _280
REMARK  112  A    between atoms: _283  and  _285
REMARK  113  A    between atoms: _285  and  _286
REMARK  114  A    between atoms: _285  and  _288
REMARK  115  A    between atoms: _288  and  _289
REMARK  116  A    between atoms: _289  and  _290
REMARK  117  A    between atoms: _290  and  _291
REMARK  118  A    between atoms: _291  and  _292
REMARK  119  A    between atoms: _296  and  _298
REMARK  120  A    between atoms: _298  and  _299
REMARK  121  A    between atoms: _298  and  _301
REMARK  122  A    between atoms: _301  and  _302
REMARK  123  A    between atoms: _313  and  _314
REMARK  124  A    between atoms: _319  and  _321
REMARK  125  A    between atoms: _321  and  _322
REMARK  126  A    between atoms: _321  and  _324
REMARK  127  A    between atoms: _324  and  _325
REMARK  128  A    between atoms: _330  and  _332
REMARK  129  A    between atoms: _332  and  _333
REMARK  130  A    between atoms: _332  and  _335
REMARK  131  A    between atoms: _335  and  _336
REMARK  132  A    between atoms: _339  and  _341
REMARK  133  A    between atoms: _341  and  _342
REMARK  134  A    between atoms: _341  and  _344
REMARK  135  A    between atoms: _347  and  _349
REMARK  136  A    between atoms: _349  and  _350
REMARK  137  A    between atoms: _352  and  _354
REMARK  138  A    between atoms: _354  and  _355
REMARK  139  A    between atoms: _354  and  _357
REMARK  140  A    between atoms: _357  and  _358
REMARK  141  A    between atoms: _358  and  _359
REMARK  142  A    between atoms: _359  and  _360
REMARK  143  A    between atoms: _360  and  _361
REMARK  144  A    between atoms: _365  and  _367
REMARK  145  A    between atoms: _367  and  _368
REMARK  146  A    between atoms: _367  and  _370
REMARK  147  A    between atoms: _370  and  _371
REMARK  148  A    between atoms: _374  and  _376
REMARK  149  A    between atoms: _376  and  _377
REMARK  150  A    between atoms: _380  and  _382
REMARK  151  A    between atoms: _382  and  _383
REMARK  152  A    between atoms: _385  and  _387
REMARK  153  A    between atoms: _387  and  _388
REMARK  154  A    between atoms: _387  and  _390
REMARK  155  A    between atoms: _390  and  _391
REMARK  156  A    between atoms: _394  and  _396
REMARK  157  A    between atoms: _396  and  _397
REMARK  158  A    between atoms: _396  and  _399
REMARK  159  A    between atoms: _399  and  _400
REMARK  160  A    between atoms: _403  and  _405
REMARK  161  A    between atoms: _405  and  _406
REMARK  162  A    between atoms: _409  and  _411
REMARK  163  A    between atoms: _411  and  _412
REMARK  164  A    between atoms: _411  and  _414
REMARK  165  A    between atoms: _414  and  _415
REMARK  166  A    between atoms: _415  and  _416
REMARK  167  A    between atoms: _419  and  _421
REMARK  168  A    between atoms: _421  and  _422
REMARK  169  A    between atoms: _421  and  _424
REMARK  170  A    between atoms: _427  and  _429
REMARK  171  A    between atoms: _429  and  _430
REMARK  172  A    between atoms: _429  and  _432
REMARK  173  A    between atoms: _432  and  _433
REMARK  174  A    between atoms: _436  and  _438
REMARK  175  A    between atoms: _438  and  _439
REMARK  176  A    between atoms: _441  and  _443
REMARK  177  A    between atoms: _443  and  _444
REMARK  178  A    between atoms: _443  and  _446
REMARK  179  A    between atoms: _449  and  _451
REMARK  180  A    between atoms: _451  and  _452
REMARK  181  A    between atoms: _454  and  _456
REMARK  182  A    between atoms: _456  and  _457
REMARK  183  A    between atoms: _456  and  _459
REMARK  184  A    between atoms: _459  and  _460
REMARK  185  A    between atoms: _463  and  _465
REMARK  186  A    between atoms: _465  and  _466
REMARK  187  A    between atoms: _465  and  _468
REMARK  188  A    between atoms: _468  and  _469
REMARK  189  A    between atoms: _474  and  _476
REMARK  190  A    between atoms: _476  and  _477
REMARK  191  A    between atoms: _476  and  _479
REMARK  192  A    between atoms: _482  and  _484
REMARK  193  A    between atoms: _484  and  _485
REMARK  194  A    between atoms: _484  and  _487
REMARK  195  A    between atoms: _487  and  _488
REMARK  196  A    between atoms: _488  and  _489
REMARK  197  A    between atoms: _494  and  _496
REMARK  198  A    between atoms: _496  and  _497
REMARK  199  A    between atoms: _501  and  _502
REMARK  200  A    between atoms: _507  and  _509
REMARK  201  A    between atoms: _509  and  _510
REMARK  202  A    between atoms: _509  and  _512
REMARK  203  A    between atoms: _512  and  _513
REMARK  204  A    between atoms: _513  and  _514
REMARK  205  A    between atoms: _517  and  _519
REMARK  206  A    between atoms: _519  and  _520
REMARK  207  A    between atoms: _519  and  _522
REMARK  208  A    between atoms: _525  and  _527
REMARK  209  A    between atoms: _527  and  _528
REMARK  210  A    between atoms: _527  and  _530
REMARK  211  A    between atoms: _530  and  _531
REMARK  212  A    between atoms: _535  and  _536
REMARK  213  A    between atoms: _541  and  _543
REMARK  214  A    between atoms: _543  and  _544
REMARK  215  A    between atoms: _543  and  _546
REMARK  216  A    between atoms: _546  and  _547
REMARK  217  A    between atoms: _550  and  _552
REMARK  218  A    between atoms: _552  and  _553
REMARK  219  A    between atoms: _556  and  _558
REMARK  220  A    between atoms: _558  and  _559
REMARK  221  A    between atoms: _558  and  _561
REMARK  222  A    between atoms: _561  and  _562
REMARK  223  A    between atoms: _565  and  _567
REMARK  224  A    between atoms: _567  and  _568
REMARK  225  A    between atoms: _567  and  _570
REMARK  226  A    between atoms: _570  and  _571
REMARK  227  A    between atoms: _573  and  _575
REMARK  228  A    between atoms: _575  and  _576
REMARK  229  A    between atoms: _578  and  _580
REMARK  230  A    between atoms: _580  and  _581
REMARK  231  A    between atoms: _580  and  _583
REMARK  232  A    between atoms: _583  and  _584
REMARK  233  A    between atoms: _587  and  _589
REMARK  234  A    between atoms: _589  and  _590
REMARK  235  A    between atoms: _589  and  _592
REMARK                            x       y       z     vdW  Elec       q    Type
REMARK                         _______ _______ _______ _____ _____    ______ ____
ROOT
ATOM      1  O   HOH     1      -7.747  -5.016   3.071  0.00  0.00    +0.000 OA
ENDROOT
TORSDOF 0
REMARK  Name = ../refined-set-2016/4xtz/4xtz_pocket.pdb
REMARK  235 active torsions:
REMARK  status: ('A' for Active; 'I' for Inactive)
REMARK    1  A    between atoms: _1  and  _3
REMARK    2  A    between atoms: _3  and  _4
REMARK    3  A    between atoms: _3  and  _6
REMARK    4  A    between atoms: _6  and  _7
REMARK    5  A    between atoms: _10  and  _12
REMARK    6  A    between atoms: _12  and  _13
REMARK    7  A    between atoms: _15  and  _17
REMARK    8  A    between atoms: _17  and  _18
REMARK    9  A    between atoms: _17  and  _20
REMARK   10  A    between atoms: _20  and  _21
REMARK   11  A    between atoms: _23  and  _25
REMARK   12  A    between atoms: _25  and  _26
REMARK   13  A    between atoms: _25  and  _28
REMARK   14  A    between atoms: _28  and  _29
REMARK   15  A    between atoms: _32  and  _34
REMARK   16  A    between atoms: _34  and  _35
REMARK   17  A    between atoms: _34  and  _37
REMARK   18  A    between atoms: _37  and  _38
REMARK   19  A    between atoms: _43  and  _45
REMARK   20  A    between atoms: _45  and  _46
REMARK   21  A    between atoms: _49  and  _51
REMARK   22  A    between atoms: _51  and  _52
REMARK   23  A    between atoms: _51  and  _54
REMARK   24  A    between atoms: _54  and  _55
REMARK   25  A    between atoms: _58  and  _60
REMARK   26  A    between atoms: _60  and  _61
REMARK   27  A    between atoms: _60  and  _63
REMARK   28  A    between atoms: _63  and  _64
REMARK   29  A    between atoms: _67  and  _69
REMARK   30  A    between atoms: _69  and  _70
REMARK   31  A    between atoms: _69  and  _72
REMARK   32  A    between atoms: _72  and  _73
REMARK   33  A    between atoms: _76  and  _78
REMARK   34  A    between atoms: _78  and  _79
REMARK   35  A    between atoms: _82  and  _84
REMARK   36  A    between atoms: _84  and  _85
REMARK   37  A    between atoms: _84  and  _87
REMARK   38  A    between atoms: _87  and  _88
REMARK   39  A    between atoms: _88  and  _89
REMARK   40  A    between atoms: _94  and  _96
REMARK   41  A    between atoms: _96  and  _97
REMARK   42  A    between atoms: _96  and  _99
REMARK   43  A    between atoms: _99  and  _100
REMARK   44  A    between atoms: _103  and  _105
REMARK   45  A    between atoms: _105  and  _106
REMARK   46  A    between atoms: _109  and  _111
REMARK   47  A    between atoms: _111  and  _112
REMARK   48  A    between atoms: _114  and  _116
REMARK   49  A    between atoms: _116  and  _117
REMARK   50  A    between atoms: _116  and  _119
REMARK   51  A    between atoms: _119  and  _120
REMARK   52  A    between atoms: _120  and  _121
REMARK   53  A    between atoms: _121  and  _122
REMARK   54  A    between atoms: _131  and  _133
REMARK   55  A    between atoms: _133  and  _134
REMARK   56  A    between atoms: _136  and  _138
REMARK   57  A    between atoms: _138  and  _139
REMARK   58  A    between atoms: _138  and  _141
REMARK   59  A    between atoms: _141  and  _142
REMARK   60  A    between atoms: _142  and  _143
REMARK   61  A    between atoms: _143  and  _144
REMARK   62  A    between atoms: _153  and  _155
REMARK   63  A    between atoms: _155  and  _156
REMARK   64  A    between atoms: _155  and  _158
REMARK   65  A    between atoms: _158  and  _159
REMARK   66  A    between atoms: _164  and  _166
REMARK   67  A    between atoms: _166  and  _167
REMARK   68  A    between atoms: _169  and  _171
REMARK   69  A    between atoms: _171  and  _172
REMARK   70  A    between atoms: _171  and  _174
REMARK   71  A    between atoms: _174  and  _175
REMARK   72  A    between atoms: _175  and  _176
REMARK   73  A    between atoms: _176  and  _177
REMARK   74  A    between atoms: _186  and  _188
REMARK   75  A    between atoms: _188  and  _189
REMARK   76  A    between atoms: _191  and  _193
REMARK   77  A    between atoms: _193  and  _194
REMARK   78  A    between atoms: _193  and  _196
REMARK   79  A    between atoms: _196  and  _197
REMARK   80  A    between atoms: _207  and  _209
REMARK   81  A    between atoms: _209  and  _210
REMARK   82  A    between atoms: _213  and  _215
REMARK   83  A    between atoms: _215  and  _216
REMARK   84  A    between atoms: _219  and  _221
REMARK   85  A    between atoms: _221  and  _222
REMARK   86  A    between atoms: _221  and  _224
REMARK   87  A    between atoms: _224  and  _225
REMARK   88  A    between atoms: _228  and  _230
REMARK   89  A    between atoms: _230  and  _231
REMARK   90  A    between atoms: _230  and  _233
REMARK   91  A    between atoms: _233  and  _234
REMARK   92  A    between atoms: _234  and  _235
REMARK   93  A    between atoms: _240  and  _242
REMARK   94  A    between atoms: _242  and  _243
REMARK   95  A    between atoms: _242  and  _245
REMARK   96  A    between atoms: _245  and  _246
REMARK   97  A    between atoms: _249  and  _251
REMARK   98  A    between atoms: _251  and  _252
REMARK   99  A    between atoms: _251  and  _254
REMARK  100  A    between atoms: _254  and  _255
REMARK  101  A    between atoms: _258  and  _260
REMARK  102  A    between atoms: _260  and  _261
REMARK  103  A    between atoms: _260  and  _263
REMARK  104  A    between atoms: _263  and  _264
REMARK  105  A    between atoms: _267  and  _269
REMARK  106  A    between atoms: _269  and  _270
REMARK  107  A    between atoms: _269  and  _272
REMARK  108  A    between atoms: _272  and  _273
REMARK  109  A    between atoms: _275  and  _277
REMARK  110  A    between atoms: _277  and  _278
REMARK  111  A    between atoms: _277  and  _280
REMARK  112  A    between atoms: _283  and  _285
REMARK  113  A    between atoms: _285  and  _286
REMARK  114  A    between atoms: _285  and  _288
REMARK  115  A    between atoms: _288  and  _289
REMARK  116  A    between atoms: _289  and  _290
REMARK  117  A    between atoms: _290  and  _291
REMARK  118  A    between atoms: _291  and  _292
REMARK  119  A    between atoms: _296  and  _298
REMARK  120  A    between atoms: _298  and  _299
REMARK  121  A    between atoms: _298  and  _301
REMARK  122  A    between atoms: _301  and  _302
REMARK  123  A    between atoms: _313  and  _314
REMARK  124  A    between atoms: _319  and  _321
REMARK  125  A    between atoms: _321  and  _322
REMARK  126  A    between atoms: _321  and  _324
REMARK  127  A    between atoms: _324  and  _325
REMARK  128  A    between atoms: _330  and  _332
REMARK  129  A    between atoms: _332  and  _333
REMARK  130  A    between atoms: _332  and  _335
REMARK  131  A    between atoms: _335  and  _336
REMARK  132  A    between atoms: _339  and  _341
REMARK  133  A    between atoms: _341  and  _342
REMARK  134  A    between atoms: _341  and  _344
REMARK  135  A    between atoms: _347  and  _349
REMARK  136  A    between atoms: _349  and  _350
REMARK  137  A    between atoms: _352  and  _354
REMARK  138  A    between atoms: _354  and  _355
REMARK  139  A    between atoms: _354  and  _357
REMARK  140  A    between atoms: _357  and  _358
REMARK  141  A    between atoms: _358  and  _359
REMARK  142  A    between atoms: _359  and  _360
REMARK  143  A    between atoms: _360  and  _361
REMARK  144  A    between atoms: _365  and  _367
REMARK  145  A    between atoms: _367  and  _368
REMARK  146  A    between atoms: _367  and  _370
REMARK  147  A    between atoms: _370  and  _371
REMARK  148  A    between atoms: _374  and  _376
REMARK  149  A    between atoms: _376  and  _377
REMARK  150  A    between atoms: _380  and  _382
REMARK  151  A    between atoms: _382  and  _383
REMARK  152  A    between atoms: _385  and  _387
REMARK  153  A    between atoms: _387  and  _388
REMARK  154  A    between atoms: _387  and  _390
REMARK  155  A    between atoms: _390  and  _391
REMARK  156  A    between atoms: _394  and  _396
REMARK  157  A    between atoms: _396  and  _397
REMARK  158  A    between atoms: _396  and  _399
REMARK  159  A    between atoms: _399  and  _400
REMARK  160  A    between atoms: _403  and  _405
REMARK  161  A    between atoms: _405  and  _406
REMARK  162  A    between atoms: _409  and  _411
REMARK  163  A    between atoms: _411  and  _412
REMARK  164  A    between atoms: _411  and  _414
REMARK  165  A    between atoms: _414  and  _415
REMARK  166  A    between atoms: _415  and  _416
REMARK  167  A    between atoms: _419  and  _421
REMARK  168  A    between atoms: _421  and  _422
REMARK  169  A    between atoms: _421  and  _424
REMARK  170  A    between atoms: _427  and  _429
REMARK  171  A    between atoms: _429  and  _430
REMARK  172  A    between atoms: _429  and  _432
REMARK  173  A    between atoms: _432  and  _433
REMARK  174  A    between atoms: _436  and  _438
REMARK  175  A    between atoms: _438  and  _439
REMARK  176  A    between atoms: _441  and  _443
REMARK  177  A    between atoms: _443  and  _444
REMARK  178  A    between atoms: _443  and  _446
REMARK  179  A    between atoms: _449  and  _451
REMARK  180  A    between atoms: _451  and  _452
REMARK  181  A    between atoms: _454  and  _456
REMARK  182  A    between atoms: _456  and  _457
REMARK  183  A    between atoms: _456  and  _459
REMARK  184  A    between atoms: _459  and  _460
REMARK  185  A    between atoms: _463  and  _465
REMARK  186  A    between atoms: _465  and  _466
REMARK  187  A    between atoms: _465  and  _468
REMARK  188  A    between atoms: _468  and  _469
REMARK  189  A    between atoms: _474  and  _476
REMARK  190  A    between atoms: _476  and  _477
REMARK  191  A    between atoms: _476  and  _479
REMARK  192  A    between atoms: _482  and  _484
REMARK  193  A    between atoms: _484  and  _485
REMARK  194  A    between atoms: _484  and  _487
REMARK  195  A    between atoms: _487  and  _488
REMARK  196  A    between atoms: _488  and  _489
REMARK  197  A    between atoms: _494  and  _496
REMARK  198  A    between atoms: _496  and  _497
REMARK  199  A    between atoms: _501  and  _502
REMARK  200  A    between atoms: _507  and  _509
REMARK  201  A    between atoms: _509  and  _510
REMARK  202  A    between atoms: _509  and  _512
REMARK  203  A    between atoms: _512  and  _513
REMARK  204  A    between atoms: _513  and  _514
REMARK  205  A    between atoms: _517  and  _519
REMARK  206  A    between atoms: _519  and  _520
REMARK  207  A    between atoms: _519  and  _522
REMARK  208  A    between atoms: _525  and  _527
REMARK  209  A    between atoms: _527  and  _528
REMARK  210  A    between atoms: _527  and  _530
REMARK  211  A    between atoms: _530  and  _531
REMARK  212  A    between atoms: _535  and  _536
REMARK  213  A    between atoms: _541  and  _543
REMARK  214  A    between atoms: _543  and  _544
REMARK  215  A    between atoms: _543  and  _546
REMARK  216  A    between atoms: _546  and  _547
REMARK  217  A    between atoms: _550  and  _552
REMARK  218  A    between atoms: _552  and  _553
REMARK  219  A    between atoms: _556  and  _558
REMARK  220  A    between atoms: _558  and  _559
REMARK  221  A    between atoms: _558  and  _561
REMARK  222  A    between atoms: _561  and  _562
REMARK  223  A    between atoms: _565  and  _567
REMARK  224  A    between atoms: _567  and  _568
REMARK  225  A    between atoms: _567  and  _570
REMARK  226  A    between atoms: _570  and  _571
REMARK  227  A    between atoms: _573  and  _575
REMARK  228  A    between atoms: _575  and  _576
REMARK  229  A    between atoms: _578  and  _580
REMARK  230  A    between atoms: _580  and  _581
REMARK  231  A    between atoms: _580  and  _583
REMARK  232  A    between atoms: _583  and  _584
REMARK  233  A    between atoms: _587  and  _589
REMARK  234  A    between atoms: _589  and  _590
REMARK  235  A    between atoms: _589  and  _592
REMARK                            x       y       z     vdW  Elec       q    Type
REMARK                         _______ _______ _______ _____ _____    ______ ____
ROOT
ATOM      1  O   HOH     1       7.751  -9.666  16.828  0.00  0.00    +0.000 OA
ENDROOT
TORSDOF 0
REMARK  Name = ../refined-set-2016/4xtz/4xtz_pocket.pdb
REMARK  235 active torsions:
REMARK  status: ('A' for Active; 'I' for Inactive)
REMARK    1  A    between atoms: _1  and  _3
REMARK    2  A    between atoms: _3  and  _4
REMARK    3  A    between atoms: _3  and  _6
REMARK    4  A    between atoms: _6  and  _7
REMARK    5  A    between atoms: _10  and  _12
REMARK    6  A    between atoms: _12  and  _13
REMARK    7  A    between atoms: _15  and  _17
REMARK    8  A    between atoms: _17  and  _18
REMARK    9  A    between atoms: _17  and  _20
REMARK   10  A    between atoms: _20  and  _21
REMARK   11  A    between atoms: _23  and  _25
REMARK   12  A    between atoms: _25  and  _26
REMARK   13  A    between atoms: _25  and  _28
REMARK   14  A    between atoms: _28  and  _29
REMARK   15  A    between atoms: _32  and  _34
REMARK   16  A    between atoms: _34  and  _35
REMARK   17  A    between atoms: _34  and  _37
REMARK   18  A    between atoms: _37  and  _38
REMARK   19  A    between atoms: _43  and  _45
REMARK   20  A    between atoms: _45  and  _46
REMARK   21  A    between atoms: _49  and  _51
REMARK   22  A    between atoms: _51  and  _52
REMARK   23  A    between atoms: _51  and  _54
REMARK   24  A    between atoms: _54  and  _55
REMARK   25  A    between atoms: _58  and  _60
REMARK   26  A    between atoms: _60  and  _61
REMARK   27  A    between atoms: _60  and  _63
REMARK   28  A    between atoms: _63  and  _64
REMARK   29  A    between atoms: _67  and  _69
REMARK   30  A    between atoms: _69  and  _70
REMARK   31  A    between atoms: _69  and  _72
REMARK   32  A    between atoms: _72  and  _73
REMARK   33  A    between atoms: _76  and  _78
REMARK   34  A    between atoms: _78  and  _79
REMARK   35  A    between atoms: _82  and  _84
REMARK   36  A    between atoms: _84  and  _85
REMARK   37  A    between atoms: _84  and  _87
REMARK   38  A    between atoms: _87  and  _88
REMARK   39  A    between atoms: _88  and  _89
REMARK   40  A    between atoms: _94  and  _96
REMARK   41  A    between atoms: _96  and  _97
REMARK   42  A    between atoms: _96  and  _99
REMARK   43  A    between atoms: _99  and  _100
REMARK   44  A    between atoms: _103  and  _105
REMARK   45  A    between atoms: _105  and  _106
REMARK   46  A    between atoms: _109  and  _111
REMARK   47  A    between atoms: _111  and  _112
REMARK   48  A    between atoms: _114  and  _116
REMARK   49  A    between atoms: _116  and  _117
REMARK   50  A    between atoms: _116  and  _119
REMARK   51  A    between atoms: _119  and  _120
REMARK   52  A    between atoms: _120  and  _121
REMARK   53  A    between atoms: _121  and  _122
REMARK   54  A    between atoms: _131  and  _133
REMARK   55  A    between atoms: _133  and  _134
REMARK   56  A    between atoms: _136  and  _138
REMARK   57  A    between atoms: _138  and  _139
REMARK   58  A    between atoms: _138  and  _141
REMARK   59  A    between atoms: _141  and  _142
REMARK   60  A    between atoms: _142  and  _143
REMARK   61  A    between atoms: _143  and  _144
REMARK   62  A    between atoms: _153  and  _155
REMARK   63  A    between atoms: _155  and  _156
REMARK   64  A    between atoms: _155  and  _158
REMARK   65  A    between atoms: _158  and  _159
REMARK   66  A    between atoms: _164  and  _166
REMARK   67  A    between atoms: _166  and  _167
REMARK   68  A    between atoms: _169  and  _171
REMARK   69  A    between atoms: _171  and  _172
REMARK   70  A    between atoms: _171  and  _174
REMARK   71  A    between atoms: _174  and  _175
REMARK   72  A    between atoms: _175  and  _176
REMARK   73  A    between atoms: _176  and  _177
REMARK   74  A    between atoms: _186  and  _188
REMARK   75  A    between atoms: _188  and  _189
REMARK   76  A    between atoms: _191  and  _193
REMARK   77  A    between atoms: _193  and  _194
REMARK   78  A    between atoms: _193  and  _196
REMARK   79  A    between atoms: _196  and  _197
REMARK   80  A    between atoms: _207  and  _209
REMARK   81  A    between atoms: _209  and  _210
REMARK   82  A    between atoms: _213  and  _215
REMARK   83  A    between atoms: _215  and  _216
REMARK   84  A    between atoms: _219  and  _221
REMARK   85  A    between atoms: _221  and  _222
REMARK   86  A    between atoms: _221  and  _224
REMARK   87  A    between atoms: _224  and  _225
REMARK   88  A    between atoms: _228  and  _230
REMARK   89  A    between atoms: _230  and  _231
REMARK   90  A    between atoms: _230  and  _233
REMARK   91  A    between atoms: _233  and  _234
REMARK   92  A    between atoms: _234  and  _235
REMARK   93  A    between atoms: _240  and  _242
REMARK   94  A    between atoms: _242  and  _243
REMARK   95  A    between atoms: _242  and  _245
REMARK   96  A    between atoms: _245  and  _246
REMARK   97  A    between atoms: _249  and  _251
REMARK   98  A    between atoms: _251  and  _252
REMARK   99  A    between atoms: _251  and  _254
REMARK  100  A    between atoms: _254  and  _255
REMARK  101  A    between atoms: _258  and  _260
REMARK  102  A    between atoms: _260  and  _261
REMARK  103  A    between atoms: _260  and  _263
REMARK  104  A    between atoms: _263  and  _264
REMARK  105  A    between atoms: _267  and  _269
REMARK  106  A    between atoms: _269  and  _270
REMARK  107  A    between atoms: _269  and  _272
REMARK  108  A    between atoms: _272  and  _273
REMARK  109  A    between atoms: _275  and  _277
REMARK  110  A    between atoms: _277  and  _278
REMARK  111  A    between atoms: _277  and  _280
REMARK  112  A    between atoms: _283  and  _285
REMARK  113  A    between atoms: _285  and  _286
REMARK  114  A    between atoms: _285  and  _288
REMARK  115  A    between atoms: _288  and  _289
REMARK  116  A    between atoms: _289  and  _290
REMARK  117  A    between atoms: _290  and  _291
REMARK  118  A    between atoms: _291  and  _292
REMARK  119  A    between atoms: _296  and  _298
REMARK  120  A    between atoms: _298  and  _299
REMARK  121  A    between atoms: _298  and  _301
REMARK  122  A    between atoms: _301  and  _302
REMARK  123  A    between atoms: _313  and  _314
REMARK  124  A    between atoms: _319  and  _321
REMARK  125  A    between atoms: _321  and  _322
REMARK  126  A    between atoms: _321  and  _324
REMARK  127  A    between atoms: _324  and  _325
REMARK  128  A    between atoms: _330  and  _332
REMARK  129  A    between atoms: _332  and  _333
REMARK  130  A    between atoms: _332  and  _335
REMARK  131  A    between atoms: _335  and  _336
REMARK  132  A    between atoms: _339  and  _341
REMARK  133  A    between atoms: _341  and  _342
REMARK  134  A    between atoms: _341  and  _344
REMARK  135  A    between atoms: _347  and  _349
REMARK  136  A    between atoms: _349  and  _350
REMARK  137  A    between atoms: _352  and  _354
REMARK  138  A    between atoms: _354  and  _355
REMARK  139  A    between atoms: _354  and  _357
REMARK  140  A    between atoms: _357  and  _358
REMARK  141  A    between atoms: _358  and  _359
REMARK  142  A    between atoms: _359  and  _360
REMARK  143  A    between atoms: _360  and  _361
REMARK  144  A    between atoms: _365  and  _367
REMARK  145  A    between atoms: _367  and  _368
REMARK  146  A    between atoms: _367  and  _370
REMARK  147  A    between atoms: _370  and  _371
REMARK  148  A    between atoms: _374  and  _376
REMARK  149  A    between atoms: _376  and  _377
REMARK  150  A    between atoms: _380  and  _382
REMARK  151  A    between atoms: _382  and  _383
REMARK  152  A    between atoms: _385  and  _387
REMARK  153  A    between atoms: _387  and  _388
REMARK  154  A    between atoms: _387  and  _390
REMARK  155  A    between atoms: _390  and  _391
REMARK  156  A    between atoms: _394  and  _396
REMARK  157  A    between atoms: _396  and  _397
REMARK  158  A    between atoms: _396  and  _399
REMARK  159  A    between atoms: _399  and  _400
REMARK  160  A    between atoms: _403  and  _405
REMARK  161  A    between atoms: _405  and  _406
REMARK  162  A    between atoms: _409  and  _411
REMARK  163  A    between atoms: _411  and  _412
REMARK  164  A    between atoms: _411  and  _414
REMARK  165  A    between atoms: _414  and  _415
REMARK  166  A    between atoms: _415  and  _416
REMARK  167  A    between atoms: _419  and  _421
REMARK  168  A    between atoms: _421  and  _422
REMARK  169  A    between atoms: _421  and  _424
REMARK  170  A    between atoms: _427  and  _429
REMARK  171  A    between atoms: _429  and  _430
REMARK  172  A    between atoms: _429  and  _432
REMARK  173  A    between atoms: _432  and  _433
REMARK  174  A    between atoms: _436  and  _438
REMARK  175  A    between atoms: _438  and  _439
REMARK  176  A    between atoms: _441  and  _443
REMARK  177  A    between atoms: _443  and  _444
REMARK  178  A    between atoms: _443  and  _446
REMARK  179  A    between atoms: _449  and  _451
REMARK  180  A    between atoms: _451  and  _452
REMARK  181  A    between atoms: _454  and  _456
REMARK  182  A    between atoms: _456  and  _457
REMARK  183  A    between atoms: _456  and  _459
REMARK  184  A    between atoms: _459  and  _460
REMARK  185  A    between atoms: _463  and  _465
REMARK  186  A    between atoms: _465  and  _466
REMARK  187  A    between atoms: _465  and  _468
REMARK  188  A    between atoms: _468  and  _469
REMARK  189  A    between atoms: _474  and  _476
REMARK  190  A    between atoms: _476  and  _477
REMARK  191  A    between atoms: _476  and  _479
REMARK  192  A    between atoms: _482  and  _484
REMARK  193  A    between atoms: _484  and  _485
REMARK  194  A    between atoms: _484  and  _487
REMARK  195  A    between atoms: _487  and  _488
REMARK  196  A    between atoms: _488  and  _489
REMARK  197  A    between atoms: _494  and  _496
REMARK  198  A    between atoms: _496  and  _497
REMARK  199  A    between atoms: _501  and  _502
REMARK  200  A    between atoms: _507  and  _509
REMARK  201  A    between atoms: _509  and  _510
REMARK  202  A    between atoms: _509  and  _512
REMARK  203  A    between atoms: _512  and  _513
REMARK  204  A    between atoms: _513  and  _514
REMARK  205  A    between atoms: _517  and  _519
REMARK  206  A    between atoms: _519  and  _520
REMARK  207  A    between atoms: _519  and  _522
REMARK  208  A    between atoms: _525  and  _527
REMARK  209  A    between atoms: _527  and  _528
REMARK  210  A    between atoms: _527  and  _530
REMARK  211  A    between atoms: _530  and  _531
REMARK  212  A    between atoms: _535  and  _536
REMARK  213  A    between atoms: _541  and  _543
REMARK  214  A    between atoms: _543  and  _544
REMARK  215  A    between atoms: _543  and  _546
REMARK  216  A    between atoms: _546  and  _547
REMARK  217  A    between atoms: _550  and  _552
REMARK  218  A    between atoms: _552  and  _553
REMARK  219  A    between atoms: _556  and  _558
REMARK  220  A    between atoms: _558  and  _559
REMARK  221  A    between atoms: _558  and  _561
REMARK  222  A    between atoms: _561  and  _562
REMARK  223  A    between atoms: _565  and  _567
REMARK  224  A    between atoms: _567  and  _568
REMARK  225  A    between atoms: _567  and  _570
REMARK  226  A    between atoms: _570  and  _571
REMARK  227  A    between atoms: _573  and  _575
REMARK  228  A    between atoms: _575  and  _576
REMARK  229  A    between atoms: _578  and  _580
REMARK  230  A    between atoms: _580  and  _581
REMARK  231  A    between atoms: _580  and  _583
REMARK  232  A    between atoms: _583  and  _584
REMARK  233  A    between atoms: _587  and  _589
REMARK  234  A    between atoms: _589  and  _590
REMARK  235  A    between atoms: _589  and  _592
REMARK                            x       y       z     vdW  Elec       q    Type
REMARK                         _______ _______ _______ _____ _____    ______ ____
ROOT
ATOM      1  O   HOH     1       1.715   1.950  15.309  0.00  0.00    +0.000 OA
ENDROOT
TORSDOF 0
