REMARK  Name = ../refined-set-2016/1fcz/1fcz_pocket.pdb
REMARK  259 active torsions:
REMARK  status: ('A' for Active; 'I' for Inactive)
REMARK    1  A    between atoms: _1  and  _3
REMARK    2  A    between atoms: _3  and  _4
REMARK    3  A    between atoms: _3  and  _6
REMARK    4  A    between atoms: _6  and  _7
REMARK    5  A    between atoms: _10  and  _12
REMARK    6  A    between atoms: _12  and  _13
REMARK    7  A    between atoms: _12  and  _15
REMARK    8  A    between atoms: _15  and  _16
REMARK    9  A    between atoms: _23  and  _24
REMARK   10  A    between atoms: _29  and  _31
REMARK   11  A    between atoms: _31  and  _32
REMARK   12  A    between atoms: _31  and  _34
REMARK   13  A    between atoms: _34  and  _35
REMARK   14  A    between atoms: _38  and  _40
REMARK   15  A    between atoms: _40  and  _41
REMARK   16  A    between atoms: _40  and  _43
REMARK   17  A    between atoms: _43  and  _44
REMARK   18  A    between atoms: _54  and  _56
REMARK   19  A    between atoms: _56  and  _57
REMARK   20  A    between atoms: _56  and  _59
REMARK   21  A    between atoms: _59  and  _60
REMARK   22  A    between atoms: _60  and  _61
REMARK   23  A    between atoms: _61  and  _62
REMARK   24  A    between atoms: _62  and  _63
REMARK   25  A    between atoms: _67  and  _69
REMARK   26  A    between atoms: _69  and  _70
REMARK   27  A    between atoms: _69  and  _72
REMARK   28  A    between atoms: _72  and  _73
REMARK   29  A    between atoms: _79  and  _81
REMARK   30  A    between atoms: _81  and  _82
REMARK   31  A    between atoms: _81  and  _84
REMARK   32  A    between atoms: _84  and  _85
REMARK   33  A    between atoms: _87  and  _89
REMARK   34  A    between atoms: _89  and  _90
REMARK   35  A    between atoms: _89  and  _92
REMARK   36  A    between atoms: _92  and  _93
REMARK   37  A    between atoms: _93  and  _94
REMARK   38  A    between atoms: _97  and  _99
REMARK   39  A    between atoms: _99  and  _100
REMARK   40  A    between atoms: _99  and  _102
REMARK   41  A    between atoms: _102  and  _103
REMARK   42  A    between atoms: _106  and  _108
REMARK   43  A    between atoms: _108  and  _109
REMARK   44  A    between atoms: _112  and  _114
REMARK   45  A    between atoms: _114  and  _115
REMARK   46  A    between atoms: _114  and  _117
REMARK   47  A    between atoms: _117  and  _118
REMARK   48  A    between atoms: _121  and  _123
REMARK   49  A    between atoms: _123  and  _124
REMARK   50  A    between atoms: _123  and  _126
REMARK   51  A    between atoms: _126  and  _127
REMARK   52  A    between atoms: _127  and  _128
REMARK   53  A    between atoms: _128  and  _129
REMARK   54  A    between atoms: _129  and  _130
REMARK   55  A    between atoms: _134  and  _136
REMARK   56  A    between atoms: _136  and  _137
REMARK   57  A    between atoms: _136  and  _139
REMARK   58  A    between atoms: _141  and  _143
REMARK   59  A    between atoms: _143  and  _144
REMARK   60  A    between atoms: _143  and  _146
REMARK   61  A    between atoms: _146  and  _147
REMARK   62  A    between atoms: _150  and  _152
REMARK   63  A    between atoms: _152  and  _153
REMARK   64  A    between atoms: _152  and  _155
REMARK   65  A    between atoms: _155  and  _156
REMARK   66  A    between atoms: _156  and  _157
REMARK   67  A    between atoms: _157  and  _158
REMARK   68  A    between atoms: _158  and  _159
REMARK   69  A    between atoms: _163  and  _165
REMARK   70  A    between atoms: _165  and  _166
REMARK   71  A    between atoms: _165  and  _168
REMARK   72  A    between atoms: _168  and  _169
REMARK   73  A    between atoms: _172  and  _174
REMARK   74  A    between atoms: _174  and  _175
REMARK   75  A    between atoms: _174  and  _177
REMARK   76  A    between atoms: _179  and  _181
REMARK   77  A    between atoms: _181  and  _182
REMARK   78  A    between atoms: _181  and  _184
REMARK   79  A    between atoms: _184  and  _185
REMARK   80  A    between atoms: _188  and  _190
REMARK   81  A    between atoms: _190  and  _191
REMARK   82  A    between atoms: _190  and  _193
REMARK   83  A    between atoms: _193  and  _194
REMARK   84  A    between atoms: _197  and  _199
REMARK   85  A    between atoms: _199  and  _200
REMARK   86  A    between atoms: _199  and  _202
REMARK   87  A    between atoms: _202  and  _203
REMARK   88  A    between atoms: _206  and  _208
REMARK   89  A    between atoms: _208  and  _209
REMARK   90  A    between atoms: _208  and  _211
REMARK   91  A    between atoms: _211  and  _212
REMARK   92  A    between atoms: _215  and  _217
REMARK   93  A    between atoms: _217  and  _218
REMARK   94  A    between atoms: _217  and  _220
REMARK   95  A    between atoms: _220  and  _221
REMARK   96  A    between atoms: _221  and  _222
REMARK   97  A    between atoms: _224  and  _226
REMARK   98  A    between atoms: _226  and  _227
REMARK   99  A    between atoms: _226  and  _229
REMARK  100  A    between atoms: _229  and  _230
REMARK  101  A    between atoms: _233  and  _235
REMARK  102  A    between atoms: _235  and  _236
REMARK  103  A    between atoms: _235  and  _238
REMARK  104  A    between atoms: _238  and  _239
REMARK  105  A    between atoms: _239  and  _240
REMARK  106  A    between atoms: _240  and  _241
REMARK  107  A    between atoms: _250  and  _252
REMARK  108  A    between atoms: _252  and  _253
REMARK  109  A    between atoms: _252  and  _255
REMARK  110  A    between atoms: _255  and  _256
REMARK  111  A    between atoms: _259  and  _261
REMARK  112  A    between atoms: _261  and  _262
REMARK  113  A    between atoms: _261  and  _264
REMARK  114  A    between atoms: _266  and  _268
REMARK  115  A    between atoms: _268  and  _269
REMARK  116  A    between atoms: _268  and  _271
REMARK  117  A    between atoms: _271  and  _272
REMARK  118  A    between atoms: _275  and  _277
REMARK  119  A    between atoms: _277  and  _278
REMARK  120  A    between atoms: _277  and  _280
REMARK  121  A    between atoms: _280  and  _281
REMARK  122  A    between atoms: _281  and  _282
REMARK  123  A    between atoms: _282  and  _283
REMARK  124  A    between atoms: _292  and  _294
REMARK  125  A    between atoms: _294  and  _295
REMARK  126  A    between atoms: _294  and  _297
REMARK  127  A    between atoms: _297  and  _298
REMARK  128  A    between atoms: _298  and  _299
REMARK  129  A    between atoms: _301  and  _303
REMARK  130  A    between atoms: _303  and  _304
REMARK  131  A    between atoms: _303  and  _306
REMARK  132  A    between atoms: _306  and  _307
REMARK  133  A    between atoms: _310  and  _312
REMARK  134  A    between atoms: _312  and  _313
REMARK  135  A    between atoms: _312  and  _315
REMARK  136  A    between atoms: _315  and  _316
REMARK  137  A    between atoms: _322  and  _324
REMARK  138  A    between atoms: _324  and  _325
REMARK  139  A    between atoms: _324  and  _327
REMARK  140  A    between atoms: _327  and  _328
REMARK  141  A    between atoms: _330  and  _332
REMARK  142  A    between atoms: _332  and  _333
REMARK  143  A    between atoms: _332  and  _335
REMARK  144  A    between atoms: _335  and  _336
REMARK  145  A    between atoms: _339  and  _341
REMARK  146  A    between atoms: _341  and  _342
REMARK  147  A    between atoms: _344  and  _346
REMARK  148  A    between atoms: _346  and  _347
REMARK  149  A    between atoms: _346  and  _349
REMARK  150  A    between atoms: _349  and  _350
REMARK  151  A    between atoms: _353  and  _355
REMARK  152  A    between atoms: _355  and  _356
REMARK  153  A    between atoms: _355  and  _358
REMARK  154  A    between atoms: _358  and  _359
REMARK  155  A    between atoms: _359  and  _360
REMARK  156  A    between atoms: _362  and  _364
REMARK  157  A    between atoms: _364  and  _365
REMARK  158  A    between atoms: _364  and  _367
REMARK  159  A    between atoms: _367  and  _368
REMARK  160  A    between atoms: _373  and  _375
REMARK  161  A    between atoms: _375  and  _376
REMARK  162  A    between atoms: _379  and  _381
REMARK  163  A    between atoms: _381  and  _382
REMARK  164  A    between atoms: _384  and  _386
REMARK  165  A    between atoms: _386  and  _387
REMARK  166  A    between atoms: _386  and  _389
REMARK  167  A    between atoms: _389  and  _390
REMARK  168  A    between atoms: _396  and  _398
REMARK  169  A    between atoms: _398  and  _399
REMARK  170  A    between atoms: _401  and  _403
REMARK  171  A    between atoms: _403  and  _404
REMARK  172  A    between atoms: _403  and  _406
REMARK  173  A    between atoms: _406  and  _407
REMARK  174  A    between atoms: _410  and  _412
REMARK  175  A    between atoms: _412  and  _413
REMARK  176  A    between atoms: _412  and  _415
REMARK  177  A    between atoms: _415  and  _416
REMARK  178  A    between atoms: _419  and  _421
REMARK  179  A    between atoms: _421  and  _422
REMARK  180  A    between atoms: _421  and  _424
REMARK  181  A    between atoms: _427  and  _429
REMARK  182  A    between atoms: _429  and  _430
REMARK  183  A    between atoms: _429  and  _432
REMARK  184  A    between atoms: _432  and  _433
REMARK  185  A    between atoms: _436  and  _438
REMARK  186  A    between atoms: _438  and  _439
REMARK  187  A    between atoms: _438  and  _441
REMARK  188  A    between atoms: _441  and  _442
REMARK  189  A    between atoms: _445  and  _447
REMARK  190  A    between atoms: _447  and  _448
REMARK  191  A    between atoms: _447  and  _450
REMARK  192  A    between atoms: _450  and  _451
REMARK  193  A    between atoms: _453  and  _455
REMARK  194  A    between atoms: _455  and  _456
REMARK  195  A    between atoms: _455  and  _458
REMARK  196  A    between atoms: _458  and  _459
REMARK  197  A    between atoms: _459  and  _460
REMARK  198  A    between atoms: _460  and  _461
REMARK  199  A    between atoms: _461  and  _462
REMARK  200  A    between atoms: _466  and  _468
REMARK  201  A    between atoms: _468  and  _469
REMARK  202  A    between atoms: _471  and  _473
REMARK  203  A    between atoms: _473  and  _474
REMARK  204  A    between atoms: _477  and  _479
REMARK  205  A    between atoms: _479  and  _480
REMARK  206  A    between atoms: _479  and  _482
REMARK  207  A    between atoms: _483  and  _484
REMARK  208  A    between atoms: _487  and  _489
REMARK  209  A    between atoms: _489  and  _490
REMARK  210  A    between atoms: _489  and  _492
REMARK  211  A    between atoms: _492  and  _493
REMARK  212  A    between atoms: _493  and  _494
REMARK  213  A    between atoms: _494  and  _495
REMARK  214  A    between atoms: _504  and  _506
REMARK  215  A    between atoms: _506  and  _507
REMARK  216  A    between atoms: _510  and  _512
REMARK  217  A    between atoms: _512  and  _513
REMARK  218  A    between atoms: _512  and  _515
REMARK  219  A    between atoms: _515  and  _516
REMARK  220  A    between atoms: _519  and  _521
REMARK  221  A    between atoms: _521  and  _522
REMARK  222  A    between atoms: _521  and  _524
REMARK  223  A    between atoms: _524  and  _525
REMARK  224  A    between atoms: _528  and  _530
REMARK  225  A    between atoms: _530  and  _531
REMARK  226  A    between atoms: _530  and  _533
REMARK  227  A    between atoms: _533  and  _534
REMARK  228  A    between atoms: _537  and  _539
REMARK  229  A    between atoms: _539  and  _540
REMARK  230  A    between atoms: _539  and  _542
REMARK  231  A    between atoms: _542  and  _543
REMARK  232  A    between atoms: _543  and  _544
REMARK  233  A    between atoms: _544  and  _545
REMARK  234  A    between atoms: _545  and  _546
REMARK  235  A    between atoms: _550  and  _552
REMARK  236  A    between atoms: _552  and  _553
REMARK  237  A    between atoms: _552  and  _555
REMARK  238  A    between atoms: _555  and  _556
REMARK  239  A    between atoms: _556  and  _557
REMARK  240  A    between atoms: _560  and  _561
REMARK  241  A    between atoms: _566  and  _568
REMARK  242  A    between atoms: _568  and  _569
REMARK  243  A    between atoms: _568  and  _571
REMARK  244  A    between atoms: _571  and  _572
REMARK  245  A    between atoms: _575  and  _577
REMARK  246  A    between atoms: _577  and  _578
REMARK  247  A    between atoms: _577  and  _580
REMARK  248  A    between atoms: _580  and  _581
REMARK  249  A    between atoms: _581  and  _582
REMARK  250  A    between atoms: _582  and  _583
REMARK  251  A    between atoms: _592  and  _594
REMARK  252  A    between atoms: _594  and  _595
REMARK  253  A    between atoms: _594  and  _597
REMARK  254  A    between atoms: _597  and  _598
REMARK  255  A    between atoms: _598  and  _599
REMARK  256  A    between atoms: _601  and  _603
REMARK  257  A    between atoms: _603  and  _604
REMARK  258  A    between atoms: _603  and  _606
REMARK  259  A    between atoms: _606  and  _607
REMARK                            x       y       z     vdW  Elec       q    Type
REMARK                         _______ _______ _______ _____ _____    ______ ____
ROOT
ATOM      1  CA  PHE A   2      32.354  17.546  95.559  0.00  0.00    +0.153 C 
ENDROOT
BRANCH   1   2
ATOM      2  C   PHE A   2      30.837  17.370  95.537  0.00  0.00    +0.244 C 
ATOM      3  O   PHE A   2      30.307  16.387  96.052  0.00  0.00    -0.273 OA
ATOM      4  N   PRO A   3      30.126  18.326  94.961  0.00  0.00    -0.273 N 
ATOM      5  CA  PRO A   3      28.649  18.207  94.917  0.00  0.00    +0.140 C 
ATOM      6  CB  PRO A   3      28.221  19.381  94.090  0.00  0.00    +0.030 C 
ATOM      7  CG  PRO A   3      29.310  20.393  94.200  0.00  0.00    +0.024 C 
ATOM      8  CD  PRO A   3      30.605  19.617  94.431  0.00  0.00    +0.094 C 
BRANCH   5   9
ATOM      9  C   PRO A   3      28.186  16.893  94.287  0.00  0.00    +0.227 C 
ATOM     10  O   PRO A   3      28.784  16.362  93.364  0.00  0.00    -0.286 OA
ENDBRANCH   5   9
ENDBRANCH   1   2
BRANCH   1  12
ATOM     11  C   THR A   1      33.918  18.968  96.794  0.00  0.00    +0.241 C 
ATOM     12  N   PHE A   2      32.760  18.321  96.724  0.00  0.00    -0.297 N 
ATOM     13  H   PHE A   2      32.114  18.370  97.538  0.00  0.00    +0.150 HD
ATOM     14  O   THR A   1      34.689  19.053  95.819  0.00  0.00    -0.274 OA
BRANCH  11  15
ATOM     15  CA  THR A   1      34.306  19.611  98.109  0.00  0.00    +0.172 C 
BRANCH  15  16
ATOM     16  N   THR A   1      33.366  19.347  99.173  0.00  0.00    -0.236 NA
ATOM     17  H   THR A   1      33.197  18.362  99.461  0.00  0.00    +0.142 HD
ENDBRANCH  15  16
BRANCH  15  18
ATOM     18  CB  THR A   1      35.740  19.178  98.487  0.00  0.00    +0.135 C 
ATOM     19  CG2 THR A   1      36.220  19.936  99.672  0.00  0.00    +0.034 C 
BRANCH  18  20
ATOM     20  OG1 THR A   1      35.789  17.749  98.732  0.00  0.00    -0.383 OA
ATOM     21  HG1 THR A   1      35.176  17.522  99.476  0.00  0.00    +0.210 HD
ENDBRANCH  18  20
ENDBRANCH  15  18
ENDBRANCH  11  15
ENDBRANCH   1  12
BRANCH   1  22
ATOM     22  CB  PHE A   2      33.030  16.190  95.449  0.00  0.00    +0.055 C 
BRANCH  22  23
ATOM     23  CG  PHE A   2      32.919  15.638  94.010  0.00  0.00    -0.020 A 
ATOM     24  CD2 PHE A   2      32.186  14.537  93.733  0.00  0.00    -0.004 A 
ATOM     25  CE2 PHE A   2      32.121  14.061  92.404  0.00  0.00    -0.000 A 
ATOM     26  CZ  PHE A   2      32.826  14.715  91.414  0.00  0.00    -0.000 A 
ATOM     27  CE1 PHE A   2      33.560  15.857  91.680  0.00  0.00    -0.000 A 
ATOM     28  CD1 PHE A   2      33.572  16.277  92.981  0.00  0.00    -0.004 A 
ENDBRANCH  22  23
ENDBRANCH   1  22
TORSDOF 9
REMARK  Name = ../refined-set-2016/1fcz/1fcz_pocket.pdb
REMARK  259 active torsions:
REMARK  status: ('A' for Active; 'I' for Inactive)
REMARK    1  A    between atoms: _1  and  _3
REMARK    2  A    between atoms: _3  and  _4
REMARK    3  A    between atoms: _3  and  _6
REMARK    4  A    between atoms: _6  and  _7
REMARK    5  A    between atoms: _10  and  _12
REMARK    6  A    between atoms: _12  and  _13
REMARK    7  A    between atoms: _12  and  _15
REMARK    8  A    between atoms: _15  and  _16
REMARK    9  A    between atoms: _23  and  _24
REMARK   10  A    between atoms: _29  and  _31
REMARK   11  A    between atoms: _31  and  _32
REMARK   12  A    between atoms: _31  and  _34
REMARK   13  A    between atoms: _34  and  _35
REMARK   14  A    between atoms: _38  and  _40
REMARK   15  A    between atoms: _40  and  _41
REMARK   16  A    between atoms: _40  and  _43
REMARK   17  A    between atoms: _43  and  _44
REMARK   18  A    between atoms: _54  and  _56
REMARK   19  A    between atoms: _56  and  _57
REMARK   20  A    between atoms: _56  and  _59
REMARK   21  A    between atoms: _59  and  _60
REMARK   22  A    between atoms: _60  and  _61
REMARK   23  A    between atoms: _61  and  _62
REMARK   24  A    between atoms: _62  and  _63
REMARK   25  A    between atoms: _67  and  _69
REMARK   26  A    between atoms: _69  and  _70
REMARK   27  A    between atoms: _69  and  _72
REMARK   28  A    between atoms: _72  and  _73
REMARK   29  A    between atoms: _79  and  _81
REMARK   30  A    between atoms: _81  and  _82
REMARK   31  A    between atoms: _81  and  _84
REMARK   32  A    between atoms: _84  and  _85
REMARK   33  A    between atoms: _87  and  _89
REMARK   34  A    between atoms: _89  and  _90
REMARK   35  A    between atoms: _89  and  _92
REMARK   36  A    between atoms: _92  and  _93
REMARK   37  A    between atoms: _93  and  _94
REMARK   38  A    between atoms: _97  and  _99
REMARK   39  A    between atoms: _99  and  _100
REMARK   40  A    between atoms: _99  and  _102
REMARK   41  A    between atoms: _102  and  _103
REMARK   42  A    between atoms: _106  and  _108
REMARK   43  A    between atoms: _108  and  _109
REMARK   44  A    between atoms: _112  and  _114
REMARK   45  A    between atoms: _114  and  _115
REMARK   46  A    between atoms: _114  and  _117
REMARK   47  A    between atoms: _117  and  _118
REMARK   48  A    between atoms: _121  and  _123
REMARK   49  A    between atoms: _123  and  _124
REMARK   50  A    between atoms: _123  and  _126
REMARK   51  A    between atoms: _126  and  _127
REMARK   52  A    between atoms: _127  and  _128
REMARK   53  A    between atoms: _128  and  _129
REMARK   54  A    between atoms: _129  and  _130
REMARK   55  A    between atoms: _134  and  _136
REMARK   56  A    between atoms: _136  and  _137
REMARK   57  A    between atoms: _136  and  _139
REMARK   58  A    between atoms: _141  and  _143
REMARK   59  A    between atoms: _143  and  _144
REMARK   60  A    between atoms: _143  and  _146
REMARK   61  A    between atoms: _146  and  _147
REMARK   62  A    between atoms: _150  and  _152
REMARK   63  A    between atoms: _152  and  _153
REMARK   64  A    between atoms: _152  and  _155
REMARK   65  A    between atoms: _155  and  _156
REMARK   66  A    between atoms: _156  and  _157
REMARK   67  A    between atoms: _157  and  _158
REMARK   68  A    between atoms: _158  and  _159
REMARK   69  A    between atoms: _163  and  _165
REMARK   70  A    between atoms: _165  and  _166
REMARK   71  A    between atoms: _165  and  _168
REMARK   72  A    between atoms: _168  and  _169
REMARK   73  A    between atoms: _172  and  _174
REMARK   74  A    between atoms: _174  and  _175
REMARK   75  A    between atoms: _174  and  _177
REMARK   76  A    between atoms: _179  and  _181
REMARK   77  A    between atoms: _181  and  _182
REMARK   78  A    between atoms: _181  and  _184
REMARK   79  A    between atoms: _184  and  _185
REMARK   80  A    between atoms: _188  and  _190
REMARK   81  A    between atoms: _190  and  _191
REMARK   82  A    between atoms: _190  and  _193
REMARK   83  A    between atoms: _193  and  _194
REMARK   84  A    between atoms: _197  and  _199
REMARK   85  A    between atoms: _199  and  _200
REMARK   86  A    between atoms: _199  and  _202
REMARK   87  A    between atoms: _202  and  _203
REMARK   88  A    between atoms: _206  and  _208
REMARK   89  A    between atoms: _208  and  _209
REMARK   90  A    between atoms: _208  and  _211
REMARK   91  A    between atoms: _211  and  _212
REMARK   92  A    between atoms: _215  and  _217
REMARK   93  A    between atoms: _217  and  _218
REMARK   94  A    between atoms: _217  and  _220
REMARK   95  A    between atoms: _220  and  _221
REMARK   96  A    between atoms: _221  and  _222
REMARK   97  A    between atoms: _224  and  _226
REMARK   98  A    between atoms: _226  and  _227
REMARK   99  A    between atoms: _226  and  _229
REMARK  100  A    between atoms: _229  and  _230
REMARK  101  A    between atoms: _233  and  _235
REMARK  102  A    between atoms: _235  and  _236
REMARK  103  A    between atoms: _235  and  _238
REMARK  104  A    between atoms: _238  and  _239
REMARK  105  A    between atoms: _239  and  _240
REMARK  106  A    between atoms: _240  and  _241
REMARK  107  A    between atoms: _250  and  _252
REMARK  108  A    between atoms: _252  and  _253
REMARK  109  A    between atoms: _252  and  _255
REMARK  110  A    between atoms: _255  and  _256
REMARK  111  A    between atoms: _259  and  _261
REMARK  112  A    between atoms: _261  and  _262
REMARK  113  A    between atoms: _261  and  _264
REMARK  114  A    between atoms: _266  and  _268
REMARK  115  A    between atoms: _268  and  _269
REMARK  116  A    between atoms: _268  and  _271
REMARK  117  A    between atoms: _271  and  _272
REMARK  118  A    between atoms: _275  and  _277
REMARK  119  A    between atoms: _277  and  _278
REMARK  120  A    between atoms: _277  and  _280
REMARK  121  A    between atoms: _280  and  _281
REMARK  122  A    between atoms: _281  and  _282
REMARK  123  A    between atoms: _282  and  _283
REMARK  124  A    between atoms: _292  and  _294
REMARK  125  A    between atoms: _294  and  _295
REMARK  126  A    between atoms: _294  and  _297
REMARK  127  A    between atoms: _297  and  _298
REMARK  128  A    between atoms: _298  and  _299
REMARK  129  A    between atoms: _301  and  _303
REMARK  130  A    between atoms: _303  and  _304
REMARK  131  A    between atoms: _303  and  _306
REMARK  132  A    between atoms: _306  and  _307
REMARK  133  A    between atoms: _310  and  _312
REMARK  134  A    between atoms: _312  and  _313
REMARK  135  A    between atoms: _312  and  _315
REMARK  136  A    between atoms: _315  and  _316
REMARK  137  A    between atoms: _322  and  _324
REMARK  138  A    between atoms: _324  and  _325
REMARK  139  A    between atoms: _324  and  _327
REMARK  140  A    between atoms: _327  and  _328
REMARK  141  A    between atoms: _330  and  _332
REMARK  142  A    between atoms: _332  and  _333
REMARK  143  A    between atoms: _332  and  _335
REMARK  144  A    between atoms: _335  and  _336
REMARK  145  A    between atoms: _339  and  _341
REMARK  146  A    between atoms: _341  and  _342
REMARK  147  A    between atoms: _344  and  _346
REMARK  148  A    between atoms: _346  and  _347
REMARK  149  A    between atoms: _346  and  _349
REMARK  150  A    between atoms: _349  and  _350
REMARK  151  A    between atoms: _353  and  _355
REMARK  152  A    between atoms: _355  and  _356
REMARK  153  A    between atoms: _355  and  _358
REMARK  154  A    between atoms: _358  and  _359
REMARK  155  A    between atoms: _359  and  _360
REMARK  156  A    between atoms: _362  and  _364
REMARK  157  A    between atoms: _364  and  _365
REMARK  158  A    between atoms: _364  and  _367
REMARK  159  A    between atoms: _367  and  _368
REMARK  160  A    between atoms: _373  and  _375
REMARK  161  A    between atoms: _375  and  _376
REMARK  162  A    between atoms: _379  and  _381
REMARK  163  A    between atoms: _381  and  _382
REMARK  164  A    between atoms: _384  and  _386
REMARK  165  A    between atoms: _386  and  _387
REMARK  166  A    between atoms: _386  and  _389
REMARK  167  A    between atoms: _389  and  _390
REMARK  168  A    between atoms: _396  and  _398
REMARK  169  A    between atoms: _398  and  _399
REMARK  170  A    between atoms: _401  and  _403
REMARK  171  A    between atoms: _403  and  _404
REMARK  172  A    between atoms: _403  and  _406
REMARK  173  A    between atoms: _406  and  _407
REMARK  174  A    between atoms: _410  and  _412
REMARK  175  A    between atoms: _412  and  _413
REMARK  176  A    between atoms: _412  and  _415
REMARK  177  A    between atoms: _415  and  _416
REMARK  178  A    between atoms: _419  and  _421
REMARK  179  A    between atoms: _421  and  _422
REMARK  180  A    between atoms: _421  and  _424
REMARK  181  A    between atoms: _427  and  _429
REMARK  182  A    between atoms: _429  and  _430
REMARK  183  A    between atoms: _429  and  _432
REMARK  184  A    between atoms: _432  and  _433
REMARK  185  A    between atoms: _436  and  _438
REMARK  186  A    between atoms: _438  and  _439
REMARK  187  A    between atoms: _438  and  _441
REMARK  188  A    between atoms: _441  and  _442
REMARK  189  A    between atoms: _445  and  _447
REMARK  190  A    between atoms: _447  and  _448
REMARK  191  A    between atoms: _447  and  _450
REMARK  192  A    between atoms: _450  and  _451
REMARK  193  A    between atoms: _453  and  _455
REMARK  194  A    between atoms: _455  and  _456
REMARK  195  A    between atoms: _455  and  _458
REMARK  196  A    between atoms: _458  and  _459
REMARK  197  A    between atoms: _459  and  _460
REMARK  198  A    between atoms: _460  and  _461
REMARK  199  A    between atoms: _461  and  _462
REMARK  200  A    between atoms: _466  and  _468
REMARK  201  A    between atoms: _468  and  _469
REMARK  202  A    between atoms: _471  and  _473
REMARK  203  A    between atoms: _473  and  _474
REMARK  204  A    between atoms: _477  and  _479
REMARK  205  A    between atoms: _479  and  _480
REMARK  206  A    between atoms: _479  and  _482
REMARK  207  A    between atoms: _483  and  _484
REMARK  208  A    between atoms: _487  and  _489
REMARK  209  A    between atoms: _489  and  _490
REMARK  210  A    between atoms: _489  and  _492
REMARK  211  A    between atoms: _492  and  _493
REMARK  212  A    between atoms: _493  and  _494
REMARK  213  A    between atoms: _494  and  _495
REMARK  214  A    between atoms: _504  and  _506
REMARK  215  A    between atoms: _506  and  _507
REMARK  216  A    between atoms: _510  and  _512
REMARK  217  A    between atoms: _512  and  _513
REMARK  218  A    between atoms: _512  and  _515
REMARK  219  A    between atoms: _515  and  _516
REMARK  220  A    between atoms: _519  and  _521
REMARK  221  A    between atoms: _521  and  _522
REMARK  222  A    between atoms: _521  and  _524
REMARK  223  A    between atoms: _524  and  _525
REMARK  224  A    between atoms: _528  and  _530
REMARK  225  A    between atoms: _530  and  _531
REMARK  226  A    between atoms: _530  and  _533
REMARK  227  A    between atoms: _533  and  _534
REMARK  228  A    between atoms: _537  and  _539
REMARK  229  A    between atoms: _539  and  _540
REMARK  230  A    between atoms: _539  and  _542
REMARK  231  A    between atoms: _542  and  _543
REMARK  232  A    between atoms: _543  and  _544
REMARK  233  A    between atoms: _544  and  _545
REMARK  234  A    between atoms: _545  and  _546
REMARK  235  A    between atoms: _550  and  _552
REMARK  236  A    between atoms: _552  and  _553
REMARK  237  A    between atoms: _552  and  _555
REMARK  238  A    between atoms: _555  and  _556
REMARK  239  A    between atoms: _556  and  _557
REMARK  240  A    between atoms: _560  and  _561
REMARK  241  A    between atoms: _566  and  _568
REMARK  242  A    between atoms: _568  and  _569
REMARK  243  A    between atoms: _568  and  _571
REMARK  244  A    between atoms: _571  and  _572
REMARK  245  A    between atoms: _575  and  _577
REMARK  246  A    between atoms: _577  and  _578
REMARK  247  A    between atoms: _577  and  _580
REMARK  248  A    between atoms: _580  and  _581
REMARK  249  A    between atoms: _581  and  _582
REMARK  250  A    between atoms: _582  and  _583
REMARK  251  A    between atoms: _592  and  _594
REMARK  252  A    between atoms: _594  and  _595
REMARK  253  A    between atoms: _594  and  _597
REMARK  254  A    between atoms: _597  and  _598
REMARK  255  A    between atoms: _598  and  _599
REMARK  256  A    between atoms: _601  and  _603
REMARK  257  A    between atoms: _603  and  _604
REMARK  258  A    between atoms: _603  and  _606
REMARK  259  A    between atoms: _606  and  _607
REMARK                            x       y       z     vdW  Elec       q    Type
REMARK                         _______ _______ _______ _____ _____    ______ ____
ROOT
ATOM      1  CA  LEU A   1      23.756  19.977  90.363  0.00  0.00    +0.133 C 
ENDROOT
BRANCH   1   2
ATOM      2  N   LEU A   1      23.281  19.109  91.424  0.00  0.00    -0.239 NA
ATOM      3  H   LEU A   1      23.268  18.079  91.280  0.00  0.00    +0.142 HD
ENDBRANCH   1   2
BRANCH   1   4
ATOM      4  C   LEU A   1      22.724  20.286  89.280  0.00  0.00    +0.224 C 
ATOM      5  O   LEU A   1      22.030  19.357  88.861  0.00  0.00    -0.287 OA
ENDBRANCH   1   4
BRANCH   1   6
ATOM      6  CB  LEU A   1      24.997  19.356  89.664  0.00  0.00    +0.025 C 
BRANCH   6   7
ATOM      7  CG  LEU A   1      26.246  19.330  90.558  0.00  0.00    +0.002 C 
ATOM      8  CD2 LEU A   1      26.795  20.724  90.820  0.00  0.00    +0.000 C 
ATOM      9  CD1 LEU A   1      27.295  18.488  89.887  0.00  0.00    +0.000 C 
ENDBRANCH   6   7
ENDBRANCH   1   6
TORSDOF 4
REMARK  Name = ../refined-set-2016/1fcz/1fcz_pocket.pdb
REMARK  259 active torsions:
REMARK  status: ('A' for Active; 'I' for Inactive)
REMARK    1  A    between atoms: _1  and  _3
REMARK    2  A    between atoms: _3  and  _4
REMARK    3  A    between atoms: _3  and  _6
REMARK    4  A    between atoms: _6  and  _7
REMARK    5  A    between atoms: _10  and  _12
REMARK    6  A    between atoms: _12  and  _13
REMARK    7  A    between atoms: _12  and  _15
REMARK    8  A    between atoms: _15  and  _16
REMARK    9  A    between atoms: _23  and  _24
REMARK   10  A    between atoms: _29  and  _31
REMARK   11  A    between atoms: _31  and  _32
REMARK   12  A    between atoms: _31  and  _34
REMARK   13  A    between atoms: _34  and  _35
REMARK   14  A    between atoms: _38  and  _40
REMARK   15  A    between atoms: _40  and  _41
REMARK   16  A    between atoms: _40  and  _43
REMARK   17  A    between atoms: _43  and  _44
REMARK   18  A    between atoms: _54  and  _56
REMARK   19  A    between atoms: _56  and  _57
REMARK   20  A    between atoms: _56  and  _59
REMARK   21  A    between atoms: _59  and  _60
REMARK   22  A    between atoms: _60  and  _61
REMARK   23  A    between atoms: _61  and  _62
REMARK   24  A    between atoms: _62  and  _63
REMARK   25  A    between atoms: _67  and  _69
REMARK   26  A    between atoms: _69  and  _70
REMARK   27  A    between atoms: _69  and  _72
REMARK   28  A    between atoms: _72  and  _73
REMARK   29  A    between atoms: _79  and  _81
REMARK   30  A    between atoms: _81  and  _82
REMARK   31  A    between atoms: _81  and  _84
REMARK   32  A    between atoms: _84  and  _85
REMARK   33  A    between atoms: _87  and  _89
REMARK   34  A    between atoms: _89  and  _90
REMARK   35  A    between atoms: _89  and  _92
REMARK   36  A    between atoms: _92  and  _93
REMARK   37  A    between atoms: _93  and  _94
REMARK   38  A    between atoms: _97  and  _99
REMARK   39  A    between atoms: _99  and  _100
REMARK   40  A    between atoms: _99  and  _102
REMARK   41  A    between atoms: _102  and  _103
REMARK   42  A    between atoms: _106  and  _108
REMARK   43  A    between atoms: _108  and  _109
REMARK   44  A    between atoms: _112  and  _114
REMARK   45  A    between atoms: _114  and  _115
REMARK   46  A    between atoms: _114  and  _117
REMARK   47  A    between atoms: _117  and  _118
REMARK   48  A    between atoms: _121  and  _123
REMARK   49  A    between atoms: _123  and  _124
REMARK   50  A    between atoms: _123  and  _126
REMARK   51  A    between atoms: _126  and  _127
REMARK   52  A    between atoms: _127  and  _128
REMARK   53  A    between atoms: _128  and  _129
REMARK   54  A    between atoms: _129  and  _130
REMARK   55  A    between atoms: _134  and  _136
REMARK   56  A    between atoms: _136  and  _137
REMARK   57  A    between atoms: _136  and  _139
REMARK   58  A    between atoms: _141  and  _143
REMARK   59  A    between atoms: _143  and  _144
REMARK   60  A    between atoms: _143  and  _146
REMARK   61  A    between atoms: _146  and  _147
REMARK   62  A    between atoms: _150  and  _152
REMARK   63  A    between atoms: _152  and  _153
REMARK   64  A    between atoms: _152  and  _155
REMARK   65  A    between atoms: _155  and  _156
REMARK   66  A    between atoms: _156  and  _157
REMARK   67  A    between atoms: _157  and  _158
REMARK   68  A    between atoms: _158  and  _159
REMARK   69  A    between atoms: _163  and  _165
REMARK   70  A    between atoms: _165  and  _166
REMARK   71  A    between atoms: _165  and  _168
REMARK   72  A    between atoms: _168  and  _169
REMARK   73  A    between atoms: _172  and  _174
REMARK   74  A    between atoms: _174  and  _175
REMARK   75  A    between atoms: _174  and  _177
REMARK   76  A    between atoms: _179  and  _181
REMARK   77  A    between atoms: _181  and  _182
REMARK   78  A    between atoms: _181  and  _184
REMARK   79  A    between atoms: _184  and  _185
REMARK   80  A    between atoms: _188  and  _190
REMARK   81  A    between atoms: _190  and  _191
REMARK   82  A    between atoms: _190  and  _193
REMARK   83  A    between atoms: _193  and  _194
REMARK   84  A    between atoms: _197  and  _199
REMARK   85  A    between atoms: _199  and  _200
REMARK   86  A    between atoms: _199  and  _202
REMARK   87  A    between atoms: _202  and  _203
REMARK   88  A    between atoms: _206  and  _208
REMARK   89  A    between atoms: _208  and  _209
REMARK   90  A    between atoms: _208  and  _211
REMARK   91  A    between atoms: _211  and  _212
REMARK   92  A    between atoms: _215  and  _217
REMARK   93  A    between atoms: _217  and  _218
REMARK   94  A    between atoms: _217  and  _220
REMARK   95  A    between atoms: _220  and  _221
REMARK   96  A    between atoms: _221  and  _222
REMARK   97  A    between atoms: _224  and  _226
REMARK   98  A    between atoms: _226  and  _227
REMARK   99  A    between atoms: _226  and  _229
REMARK  100  A    between atoms: _229  and  _230
REMARK  101  A    between atoms: _233  and  _235
REMARK  102  A    between atoms: _235  and  _236
REMARK  103  A    between atoms: _235  and  _238
REMARK  104  A    between atoms: _238  and  _239
REMARK  105  A    between atoms: _239  and  _240
REMARK  106  A    between atoms: _240  and  _241
REMARK  107  A    between atoms: _250  and  _252
REMARK  108  A    between atoms: _252  and  _253
REMARK  109  A    between atoms: _252  and  _255
REMARK  110  A    between atoms: _255  and  _256
REMARK  111  A    between atoms: _259  and  _261
REMARK  112  A    between atoms: _261  and  _262
REMARK  113  A    between atoms: _261  and  _264
REMARK  114  A    between atoms: _266  and  _268
REMARK  115  A    between atoms: _268  and  _269
REMARK  116  A    between atoms: _268  and  _271
REMARK  117  A    between atoms: _271  and  _272
REMARK  118  A    between atoms: _275  and  _277
REMARK  119  A    between atoms: _277  and  _278
REMARK  120  A    between atoms: _277  and  _280
REMARK  121  A    between atoms: _280  and  _281
REMARK  122  A    between atoms: _281  and  _282
REMARK  123  A    between atoms: _282  and  _283
REMARK  124  A    between atoms: _292  and  _294
REMARK  125  A    between atoms: _294  and  _295
REMARK  126  A    between atoms: _294  and  _297
REMARK  127  A    between atoms: _297  and  _298
REMARK  128  A    between atoms: _298  and  _299
REMARK  129  A    between atoms: _301  and  _303
REMARK  130  A    between atoms: _303  and  _304
REMARK  131  A    between atoms: _303  and  _306
REMARK  132  A    between atoms: _306  and  _307
REMARK  133  A    between atoms: _310  and  _312
REMARK  134  A    between atoms: _312  and  _313
REMARK  135  A    between atoms: _312  and  _315
REMARK  136  A    between atoms: _315  and  _316
REMARK  137  A    between atoms: _322  and  _324
REMARK  138  A    between atoms: _324  and  _325
REMARK  139  A    between atoms: _324  and  _327
REMARK  140  A    between atoms: _327  and  _328
REMARK  141  A    between atoms: _330  and  _332
REMARK  142  A    between atoms: _332  and  _333
REMARK  143  A    between atoms: _332  and  _335
REMARK  144  A    between atoms: _335  and  _336
REMARK  145  A    between atoms: _339  and  _341
REMARK  146  A    between atoms: _341  and  _342
REMARK  147  A    between atoms: _344  and  _346
REMARK  148  A    between atoms: _346  and  _347
REMARK  149  A    between atoms: _346  and  _349
REMARK  150  A    between atoms: _349  and  _350
REMARK  151  A    between atoms: _353  and  _355
REMARK  152  A    between atoms: _355  and  _356
REMARK  153  A    between atoms: _355  and  _358
REMARK  154  A    between atoms: _358  and  _359
REMARK  155  A    between atoms: _359  and  _360
REMARK  156  A    between atoms: _362  and  _364
REMARK  157  A    between atoms: _364  and  _365
REMARK  158  A    between atoms: _364  and  _367
REMARK  159  A    between atoms: _367  and  _368
REMARK  160  A    between atoms: _373  and  _375
REMARK  161  A    between atoms: _375  and  _376
REMARK  162  A    between atoms: _379  and  _381
REMARK  163  A    between atoms: _381  and  _382
REMARK  164  A    between atoms: _384  and  _386
REMARK  165  A    between atoms: _386  and  _387
REMARK  166  A    between atoms: _386  and  _389
REMARK  167  A    between atoms: _389  and  _390
REMARK  168  A    between atoms: _396  and  _398
REMARK  169  A    between atoms: _398  and  _399
REMARK  170  A    between atoms: _401  and  _403
REMARK  171  A    between atoms: _403  and  _404
REMARK  172  A    between atoms: _403  and  _406
REMARK  173  A    between atoms: _406  and  _407
REMARK  174  A    between atoms: _410  and  _412
REMARK  175  A    between atoms: _412  and  _413
REMARK  176  A    between atoms: _412  and  _415
REMARK  177  A    between atoms: _415  and  _416
REMARK  178  A    between atoms: _419  and  _421
REMARK  179  A    between atoms: _421  and  _422
REMARK  180  A    between atoms: _421  and  _424
REMARK  181  A    between atoms: _427  and  _429
REMARK  182  A    between atoms: _429  and  _430
REMARK  183  A    between atoms: _429  and  _432
REMARK  184  A    between atoms: _432  and  _433
REMARK  185  A    between atoms: _436  and  _438
REMARK  186  A    between atoms: _438  and  _439
REMARK  187  A    between atoms: _438  and  _441
REMARK  188  A    between atoms: _441  and  _442
REMARK  189  A    between atoms: _445  and  _447
REMARK  190  A    between atoms: _447  and  _448
REMARK  191  A    between atoms: _447  and  _450
REMARK  192  A    between atoms: _450  and  _451
REMARK  193  A    between atoms: _453  and  _455
REMARK  194  A    between atoms: _455  and  _456
REMARK  195  A    between atoms: _455  and  _458
REMARK  196  A    between atoms: _458  and  _459
REMARK  197  A    between atoms: _459  and  _460
REMARK  198  A    between atoms: _460  and  _461
REMARK  199  A    between atoms: _461  and  _462
REMARK  200  A    between atoms: _466  and  _468
REMARK  201  A    between atoms: _468  and  _469
REMARK  202  A    between atoms: _471  and  _473
REMARK  203  A    between atoms: _473  and  _474
REMARK  204  A    between atoms: _477  and  _479
REMARK  205  A    between atoms: _479  and  _480
REMARK  206  A    between atoms: _479  and  _482
REMARK  207  A    between atoms: _483  and  _484
REMARK  208  A    between atoms: _487  and  _489
REMARK  209  A    between atoms: _489  and  _490
REMARK  210  A    between atoms: _489  and  _492
REMARK  211  A    between atoms: _492  and  _493
REMARK  212  A    between atoms: _493  and  _494
REMARK  213  A    between atoms: _494  and  _495
REMARK  214  A    between atoms: _504  and  _506
REMARK  215  A    between atoms: _506  and  _507
REMARK  216  A    between atoms: _510  and  _512
REMARK  217  A    between atoms: _512  and  _513
REMARK  218  A    between atoms: _512  and  _515
REMARK  219  A    between atoms: _515  and  _516
REMARK  220  A    between atoms: _519  and  _521
REMARK  221  A    between atoms: _521  and  _522
REMARK  222  A    between atoms: _521  and  _524
REMARK  223  A    between atoms: _524  and  _525
REMARK  224  A    between atoms: _528  and  _530
REMARK  225  A    between atoms: _530  and  _531
REMARK  226  A    between atoms: _530  and  _533
REMARK  227  A    between atoms: _533  and  _534
REMARK  228  A    between atoms: _537  and  _539
REMARK  229  A    between atoms: _539  and  _540
REMARK  230  A    between atoms: _539  and  _542
REMARK  231  A    between atoms: _542  and  _543
REMARK  232  A    between atoms: _543  and  _544
REMARK  233  A    between atoms: _544  and  _545
REMARK  234  A    between atoms: _545  and  _546
REMARK  235  A    between atoms: _550  and  _552
REMARK  236  A    between atoms: _552  and  _553
REMARK  237  A    between atoms: _552  and  _555
REMARK  238  A    between atoms: _555  and  _556
REMARK  239  A    between atoms: _556  and  _557
REMARK  240  A    between atoms: _560  and  _561
REMARK  241  A    between atoms: _566  and  _568
REMARK  242  A    between atoms: _568  and  _569
REMARK  243  A    between atoms: _568  and  _571
REMARK  244  A    between atoms: _571  and  _572
REMARK  245  A    between atoms: _575  and  _577
REMARK  246  A    between atoms: _577  and  _578
REMARK  247  A    between atoms: _577  and  _580
REMARK  248  A    between atoms: _580  and  _581
REMARK  249  A    between atoms: _581  and  _582
REMARK  250  A    between atoms: _582  and  _583
REMARK  251  A    between atoms: _592  and  _594
REMARK  252  A    between atoms: _594  and  _595
REMARK  253  A    between atoms: _594  and  _597
REMARK  254  A    between atoms: _597  and  _598
REMARK  255  A    between atoms: _598  and  _599
REMARK  256  A    between atoms: _601  and  _603
REMARK  257  A    between atoms: _603  and  _604
REMARK  258  A    between atoms: _603  and  _606
REMARK  259  A    between atoms: _606  and  _607
REMARK                            x       y       z     vdW  Elec       q    Type
REMARK                         _______ _______ _______ _____ _____    ______ ____
ROOT
ATOM      1  CG  TRP A   1      42.265  21.430  76.136  0.00  0.00    -0.002 A 
ATOM      2  CD2 TRP A   1      42.826  20.631  77.198  0.00  0.00    +0.013 A 
ATOM      3  CE3 TRP A   1      42.532  19.399  77.782  0.00  0.00    +0.001 A 
ATOM      4  CZ3 TRP A   1      43.316  18.949  78.797  0.00  0.00    +0.000 A 
ATOM      5  CH2 TRP A   1      44.437  19.667  79.271  0.00  0.00    +0.001 A 
ATOM      6  CZ2 TRP A   1      44.764  20.863  78.714  0.00  0.00    +0.017 A 
ATOM      7  CE2 TRP A   1      43.948  21.320  77.687  0.00  0.00    +0.056 A 
ATOM      8  NE1 TRP A   1      44.050  22.471  76.966  0.00  0.00    -0.352 N 
ATOM      9  HE1 TRP A   1      44.789  23.191  77.097  0.00  0.00    +0.166 HD
ATOM     10  CD1 TRP A   1      43.025  22.547  76.029  0.00  0.00    +0.068 A 
ENDROOT
BRANCH   1  11
ATOM     11  CB  TRP A   1      41.047  21.065  75.360  0.00  0.00    +0.053 C 
BRANCH  11  12
ATOM     12  CA  TRP A   1      39.774  21.259  76.250  0.00  0.00    +0.137 C 
BRANCH  12  13
ATOM     13  N   TRP A   1      38.559  21.406  75.454  0.00  0.00    -0.239 NA
ATOM     14  H   TRP A   1      38.629  21.453  74.417  0.00  0.00    +0.142 HD
ENDBRANCH  12  13
BRANCH  12  15
ATOM     15  C   TRP A   1      39.915  22.440  77.202  0.00  0.00    +0.224 C 
ATOM     16  O   TRP A   1      40.243  22.281  78.377  0.00  0.00    -0.287 OA
ENDBRANCH  12  15
ENDBRANCH  11  12
ENDBRANCH   1  11
TORSDOF 4
REMARK  Name = ../refined-set-2016/1fcz/1fcz_pocket.pdb
REMARK  259 active torsions:
REMARK  status: ('A' for Active; 'I' for Inactive)
REMARK    1  A    between atoms: _1  and  _3
REMARK    2  A    between atoms: _3  and  _4
REMARK    3  A    between atoms: _3  and  _6
REMARK    4  A    between atoms: _6  and  _7
REMARK    5  A    between atoms: _10  and  _12
REMARK    6  A    between atoms: _12  and  _13
REMARK    7  A    between atoms: _12  and  _15
REMARK    8  A    between atoms: _15  and  _16
REMARK    9  A    between atoms: _23  and  _24
REMARK   10  A    between atoms: _29  and  _31
REMARK   11  A    between atoms: _31  and  _32
REMARK   12  A    between atoms: _31  and  _34
REMARK   13  A    between atoms: _34  and  _35
REMARK   14  A    between atoms: _38  and  _40
REMARK   15  A    between atoms: _40  and  _41
REMARK   16  A    between atoms: _40  and  _43
REMARK   17  A    between atoms: _43  and  _44
REMARK   18  A    between atoms: _54  and  _56
REMARK   19  A    between atoms: _56  and  _57
REMARK   20  A    between atoms: _56  and  _59
REMARK   21  A    between atoms: _59  and  _60
REMARK   22  A    between atoms: _60  and  _61
REMARK   23  A    between atoms: _61  and  _62
REMARK   24  A    between atoms: _62  and  _63
REMARK   25  A    between atoms: _67  and  _69
REMARK   26  A    between atoms: _69  and  _70
REMARK   27  A    between atoms: _69  and  _72
REMARK   28  A    between atoms: _72  and  _73
REMARK   29  A    between atoms: _79  and  _81
REMARK   30  A    between atoms: _81  and  _82
REMARK   31  A    between atoms: _81  and  _84
REMARK   32  A    between atoms: _84  and  _85
REMARK   33  A    between atoms: _87  and  _89
REMARK   34  A    between atoms: _89  and  _90
REMARK   35  A    between atoms: _89  and  _92
REMARK   36  A    between atoms: _92  and  _93
REMARK   37  A    between atoms: _93  and  _94
REMARK   38  A    between atoms: _97  and  _99
REMARK   39  A    between atoms: _99  and  _100
REMARK   40  A    between atoms: _99  and  _102
REMARK   41  A    between atoms: _102  and  _103
REMARK   42  A    between atoms: _106  and  _108
REMARK   43  A    between atoms: _108  and  _109
REMARK   44  A    between atoms: _112  and  _114
REMARK   45  A    between atoms: _114  and  _115
REMARK   46  A    between atoms: _114  and  _117
REMARK   47  A    between atoms: _117  and  _118
REMARK   48  A    between atoms: _121  and  _123
REMARK   49  A    between atoms: _123  and  _124
REMARK   50  A    between atoms: _123  and  _126
REMARK   51  A    between atoms: _126  and  _127
REMARK   52  A    between atoms: _127  and  _128
REMARK   53  A    between atoms: _128  and  _129
REMARK   54  A    between atoms: _129  and  _130
REMARK   55  A    between atoms: _134  and  _136
REMARK   56  A    between atoms: _136  and  _137
REMARK   57  A    between atoms: _136  and  _139
REMARK   58  A    between atoms: _141  and  _143
REMARK   59  A    between atoms: _143  and  _144
REMARK   60  A    between atoms: _143  and  _146
REMARK   61  A    between atoms: _146  and  _147
REMARK   62  A    between atoms: _150  and  _152
REMARK   63  A    between atoms: _152  and  _153
REMARK   64  A    between atoms: _152  and  _155
REMARK   65  A    between atoms: _155  and  _156
REMARK   66  A    between atoms: _156  and  _157
REMARK   67  A    between atoms: _157  and  _158
REMARK   68  A    between atoms: _158  and  _159
REMARK   69  A    between atoms: _163  and  _165
REMARK   70  A    between atoms: _165  and  _166
REMARK   71  A    between atoms: _165  and  _168
REMARK   72  A    between atoms: _168  and  _169
REMARK   73  A    between atoms: _172  and  _174
REMARK   74  A    between atoms: _174  and  _175
REMARK   75  A    between atoms: _174  and  _177
REMARK   76  A    between atoms: _179  and  _181
REMARK   77  A    between atoms: _181  and  _182
REMARK   78  A    between atoms: _181  and  _184
REMARK   79  A    between atoms: _184  and  _185
REMARK   80  A    between atoms: _188  and  _190
REMARK   81  A    between atoms: _190  and  _191
REMARK   82  A    between atoms: _190  and  _193
REMARK   83  A    between atoms: _193  and  _194
REMARK   84  A    between atoms: _197  and  _199
REMARK   85  A    between atoms: _199  and  _200
REMARK   86  A    between atoms: _199  and  _202
REMARK   87  A    between atoms: _202  and  _203
REMARK   88  A    between atoms: _206  and  _208
REMARK   89  A    between atoms: _208  and  _209
REMARK   90  A    between atoms: _208  and  _211
REMARK   91  A    between atoms: _211  and  _212
REMARK   92  A    between atoms: _215  and  _217
REMARK   93  A    between atoms: _217  and  _218
REMARK   94  A    between atoms: _217  and  _220
REMARK   95  A    between atoms: _220  and  _221
REMARK   96  A    between atoms: _221  and  _222
REMARK   97  A    between atoms: _224  and  _226
REMARK   98  A    between atoms: _226  and  _227
REMARK   99  A    between atoms: _226  and  _229
REMARK  100  A    between atoms: _229  and  _230
REMARK  101  A    between atoms: _233  and  _235
REMARK  102  A    between atoms: _235  and  _236
REMARK  103  A    between atoms: _235  and  _238
REMARK  104  A    between atoms: _238  and  _239
REMARK  105  A    between atoms: _239  and  _240
REMARK  106  A    between atoms: _240  and  _241
REMARK  107  A    between atoms: _250  and  _252
REMARK  108  A    between atoms: _252  and  _253
REMARK  109  A    between atoms: _252  and  _255
REMARK  110  A    between atoms: _255  and  _256
REMARK  111  A    between atoms: _259  and  _261
REMARK  112  A    between atoms: _261  and  _262
REMARK  113  A    between atoms: _261  and  _264
REMARK  114  A    between atoms: _266  and  _268
REMARK  115  A    between atoms: _268  and  _269
REMARK  116  A    between atoms: _268  and  _271
REMARK  117  A    between atoms: _271  and  _272
REMARK  118  A    between atoms: _275  and  _277
REMARK  119  A    between atoms: _277  and  _278
REMARK  120  A    between atoms: _277  and  _280
REMARK  121  A    between atoms: _280  and  _281
REMARK  122  A    between atoms: _281  and  _282
REMARK  123  A    between atoms: _282  and  _283
REMARK  124  A    between atoms: _292  and  _294
REMARK  125  A    between atoms: _294  and  _295
REMARK  126  A    between atoms: _294  and  _297
REMARK  127  A    between atoms: _297  and  _298
REMARK  128  A    between atoms: _298  and  _299
REMARK  129  A    between atoms: _301  and  _303
REMARK  130  A    between atoms: _303  and  _304
REMARK  131  A    between atoms: _303  and  _306
REMARK  132  A    between atoms: _306  and  _307
REMARK  133  A    between atoms: _310  and  _312
REMARK  134  A    between atoms: _312  and  _313
REMARK  135  A    between atoms: _312  and  _315
REMARK  136  A    between atoms: _315  and  _316
REMARK  137  A    between atoms: _322  and  _324
REMARK  138  A    between atoms: _324  and  _325
REMARK  139  A    between atoms: _324  and  _327
REMARK  140  A    between atoms: _327  and  _328
REMARK  141  A    between atoms: _330  and  _332
REMARK  142  A    between atoms: _332  and  _333
REMARK  143  A    between atoms: _332  and  _335
REMARK  144  A    between atoms: _335  and  _336
REMARK  145  A    between atoms: _339  and  _341
REMARK  146  A    between atoms: _341  and  _342
REMARK  147  A    between atoms: _344  and  _346
REMARK  148  A    between atoms: _346  and  _347
REMARK  149  A    between atoms: _346  and  _349
REMARK  150  A    between atoms: _349  and  _350
REMARK  151  A    between atoms: _353  and  _355
REMARK  152  A    between atoms: _355  and  _356
REMARK  153  A    between atoms: _355  and  _358
REMARK  154  A    between atoms: _358  and  _359
REMARK  155  A    between atoms: _359  and  _360
REMARK  156  A    between atoms: _362  and  _364
REMARK  157  A    between atoms: _364  and  _365
REMARK  158  A    between atoms: _364  and  _367
REMARK  159  A    between atoms: _367  and  _368
REMARK  160  A    between atoms: _373  and  _375
REMARK  161  A    between atoms: _375  and  _376
REMARK  162  A    between atoms: _379  and  _381
REMARK  163  A    between atoms: _381  and  _382
REMARK  164  A    between atoms: _384  and  _386
REMARK  165  A    between atoms: _386  and  _387
REMARK  166  A    between atoms: _386  and  _389
REMARK  167  A    between atoms: _389  and  _390
REMARK  168  A    between atoms: _396  and  _398
REMARK  169  A    between atoms: _398  and  _399
REMARK  170  A    between atoms: _401  and  _403
REMARK  171  A    between atoms: _403  and  _404
REMARK  172  A    between atoms: _403  and  _406
REMARK  173  A    between atoms: _406  and  _407
REMARK  174  A    between atoms: _410  and  _412
REMARK  175  A    between atoms: _412  and  _413
REMARK  176  A    between atoms: _412  and  _415
REMARK  177  A    between atoms: _415  and  _416
REMARK  178  A    between atoms: _419  and  _421
REMARK  179  A    between atoms: _421  and  _422
REMARK  180  A    between atoms: _421  and  _424
REMARK  181  A    between atoms: _427  and  _429
REMARK  182  A    between atoms: _429  and  _430
REMARK  183  A    between atoms: _429  and  _432
REMARK  184  A    between atoms: _432  and  _433
REMARK  185  A    between atoms: _436  and  _438
REMARK  186  A    between atoms: _438  and  _439
REMARK  187  A    between atoms: _438  and  _441
REMARK  188  A    between atoms: _441  and  _442
REMARK  189  A    between atoms: _445  and  _447
REMARK  190  A    between atoms: _447  and  _448
REMARK  191  A    between atoms: _447  and  _450
REMARK  192  A    between atoms: _450  and  _451
REMARK  193  A    between atoms: _453  and  _455
REMARK  194  A    between atoms: _455  and  _456
REMARK  195  A    between atoms: _455  and  _458
REMARK  196  A    between atoms: _458  and  _459
REMARK  197  A    between atoms: _459  and  _460
REMARK  198  A    between atoms: _460  and  _461
REMARK  199  A    between atoms: _461  and  _462
REMARK  200  A    between atoms: _466  and  _468
REMARK  201  A    between atoms: _468  and  _469
REMARK  202  A    between atoms: _471  and  _473
REMARK  203  A    between atoms: _473  and  _474
REMARK  204  A    between atoms: _477  and  _479
REMARK  205  A    between atoms: _479  and  _480
REMARK  206  A    between atoms: _479  and  _482
REMARK  207  A    between atoms: _483  and  _484
REMARK  208  A    between atoms: _487  and  _489
REMARK  209  A    between atoms: _489  and  _490
REMARK  210  A    between atoms: _489  and  _492
REMARK  211  A    between atoms: _492  and  _493
REMARK  212  A    between atoms: _493  and  _494
REMARK  213  A    between atoms: _494  and  _495
REMARK  214  A    between atoms: _504  and  _506
REMARK  215  A    between atoms: _506  and  _507
REMARK  216  A    between atoms: _510  and  _512
REMARK  217  A    between atoms: _512  and  _513
REMARK  218  A    between atoms: _512  and  _515
REMARK  219  A    between atoms: _515  and  _516
REMARK  220  A    between atoms: _519  and  _521
REMARK  221  A    between atoms: _521  and  _522
REMARK  222  A    between atoms: _521  and  _524
REMARK  223  A    between atoms: _524  and  _525
REMARK  224  A    between atoms: _528  and  _530
REMARK  225  A    between atoms: _530  and  _531
REMARK  226  A    between atoms: _530  and  _533
REMARK  227  A    between atoms: _533  and  _534
REMARK  228  A    between atoms: _537  and  _539
REMARK  229  A    between atoms: _539  and  _540
REMARK  230  A    between atoms: _539  and  _542
REMARK  231  A    between atoms: _542  and  _543
REMARK  232  A    between atoms: _543  and  _544
REMARK  233  A    between atoms: _544  and  _545
REMARK  234  A    between atoms: _545  and  _546
REMARK  235  A    between atoms: _550  and  _552
REMARK  236  A    between atoms: _552  and  _553
REMARK  237  A    between atoms: _552  and  _555
REMARK  238  A    between atoms: _555  and  _556
REMARK  239  A    between atoms: _556  and  _557
REMARK  240  A    between atoms: _560  and  _561
REMARK  241  A    between atoms: _566  and  _568
REMARK  242  A    between atoms: _568  and  _569
REMARK  243  A    between atoms: _568  and  _571
REMARK  244  A    between atoms: _571  and  _572
REMARK  245  A    between atoms: _575  and  _577
REMARK  246  A    between atoms: _577  and  _578
REMARK  247  A    between atoms: _577  and  _580
REMARK  248  A    between atoms: _580  and  _581
REMARK  249  A    between atoms: _581  and  _582
REMARK  250  A    between atoms: _582  and  _583
REMARK  251  A    between atoms: _592  and  _594
REMARK  252  A    between atoms: _594  and  _595
REMARK  253  A    between atoms: _594  and  _597
REMARK  254  A    between atoms: _597  and  _598
REMARK  255  A    between atoms: _598  and  _599
REMARK  256  A    between atoms: _601  and  _603
REMARK  257  A    between atoms: _603  and  _604
REMARK  258  A    between atoms: _603  and  _606
REMARK  259  A    between atoms: _606  and  _607
REMARK                            x       y       z     vdW  Elec       q    Type
REMARK                         _______ _______ _______ _____ _____    ______ ____
ROOT
ATOM      1  CA  LEU A   5      37.283  22.551  85.627  0.00  0.00    +0.149 C 
ENDROOT
BRANCH   1   2
ATOM      2  C   LEU A   5      38.191  21.589  86.373  0.00  0.00    +0.241 C 
ATOM      3  O   LEU A   5      38.067  21.426  87.606  0.00  0.00    -0.273 OA
ATOM      4  N   ALA A   6      39.128  20.935  85.692  0.00  0.00    -0.297 N 
ATOM      5  H   ALA A   6      39.185  21.050  84.660  0.00  0.00    +0.150 HD
BRANCH   4   6
ATOM      6  CA  ALA A   6      40.092  20.044  86.382  0.00  0.00    +0.149 C 
ATOM      7  CB  ALA A   6      40.936  19.321  85.343  0.00  0.00    +0.031 C 
BRANCH   6   8
ATOM      8  C   ALA A   6      40.960  20.805  87.361  0.00  0.00    +0.241 C 
ATOM      9  O   ALA A   6      41.176  20.343  88.480  0.00  0.00    -0.273 OA
ATOM     10  N   THR A   7      41.431  22.001  86.996  0.00  0.00    -0.295 N 
ATOM     11  H   THR A   7      41.241  22.362  86.039  0.00  0.00    +0.150 HD
BRANCH  10  12
ATOM     12  CA  THR A   7      42.206  22.799  87.928  0.00  0.00    +0.176 C 
BRANCH  12  13
ATOM     13  C   THR A   7      41.396  23.066  89.197  0.00  0.00    +0.243 C 
ATOM     14  O   THR A   7      41.873  22.953  90.332  0.00  0.00    -0.273 OA
ATOM     15  N   LYS A   8      40.139  23.475  89.023  0.00  0.00    -0.297 N 
ATOM     16  H   LYS A   8      39.747  23.561  88.063  0.00  0.00    +0.150 HD
BRANCH  15  17
ATOM     17  CA  LYS A   8      39.309  23.804  90.187  0.00  0.00    +0.149 C 
BRANCH  17  18
ATOM     18  C   LYS A   8      39.116  22.583  91.072  0.00  0.00    +0.241 C 
ATOM     19  O   LYS A   8      39.151  22.686  92.296  0.00  0.00    -0.273 OA
ATOM     20  N   CYS A   9      38.946  21.426  90.440  0.00  0.00    -0.296 N 
ATOM     21  H   CYS A   9      38.954  21.385  89.401  0.00  0.00    +0.150 HD
BRANCH  20  22
ATOM     22  CA  CYS A   9      38.748  20.211  91.230  0.00  0.00    +0.160 C 
BRANCH  22  23
ATOM     23  C   CYS A   9      40.030  19.765  91.919  0.00  0.00    +0.242 C 
ATOM     24  O   CYS A   9      39.969  19.236  93.015  0.00  0.00    -0.273 OA
ATOM     25  N   ILE A  10      41.195  20.017  91.324  0.00  0.00    -0.298 N 
ATOM     26  H   ILE A  10      41.216  20.389  90.353  0.00  0.00    +0.150 HD
BRANCH  25  27
ATOM     27  CA  ILE A  10      42.425  19.772  92.031  0.00  0.00    +0.137 C 
BRANCH  27  28
ATOM     28  CB  ILE A  10      43.646  20.045  91.152  0.00  0.00    +0.026 C 
ATOM     29  CG2 ILE A  10      44.956  20.056  91.940  0.00  0.00    +0.002 C 
BRANCH  28  30
ATOM     30  CG1 ILE A  10      43.729  19.027  90.015  0.00  0.00    +0.002 C 
ATOM     31  CD1 ILE A  10      44.755  19.346  88.950  0.00  0.00    +0.000 C 
ENDBRANCH  28  30
ENDBRANCH  27  28
BRANCH  27  32
ATOM     32  C   ILE A  10      42.491  20.558  93.329  0.00  0.00    +0.227 C 
ATOM     33  O   ILE A  10      42.857  20.024  94.400  0.00  0.00    -0.286 OA
ENDBRANCH  27  32
ENDBRANCH  25  27
ENDBRANCH  22  23
BRANCH  22  34
ATOM     34  CB  CYS A   9      38.140  19.094  90.377  0.00  0.00    +0.098 C 
ATOM     35  SG  CYS A   9      37.468  17.711  91.318  0.00  0.00    -0.080 S 
ENDBRANCH  22  34
ENDBRANCH  20  22
ENDBRANCH  17  18
BRANCH  17  36
ATOM     36  CB  LYS A   8      37.960  24.360  89.715  0.00  0.00    +0.029 C 
BRANCH  36  37
ATOM     37  CG  LYS A   8      38.085  25.737  89.058  0.00  0.00    +0.000 C 
BRANCH  37  38
ATOM     38  CD  LYS A   8      36.765  26.372  88.713  0.00  0.00    -0.024 C 
BRANCH  38  39
ATOM     39  CE  LYS A   8      36.791  27.818  88.269  0.00  0.00    -0.086 C 
BRANCH  39  40
ATOM     40  NZ  LYS A   8      37.074  28.803  89.380  0.00  0.00    +0.380 N 
ATOM     41  HZ1 LYS A   8      36.338  28.721  90.110  0.00  0.00    -0.089 HD
ATOM     42  HZ2 LYS A   8      38.003  28.595  89.798  0.00  0.00    -0.089 HD
ATOM     43  HZ3 LYS A   8      37.075  29.769  88.994  0.00  0.00    -0.089 HD
ENDBRANCH  39  40
ENDBRANCH  38  39
ENDBRANCH  37  38
ENDBRANCH  36  37
ENDBRANCH  17  36
ENDBRANCH  15  17
ENDBRANCH  12  13
BRANCH  12  44
ATOM     44  CB  THR A   7      42.641  24.106  87.270  0.00  0.00    +0.137 C 
ATOM     45  CG2 THR A   7      43.188  25.078  88.304  0.00  0.00    +0.034 C 
BRANCH  44  46
ATOM     46  OG1 THR A   7      43.664  23.808  86.284  0.00  0.00    -0.382 OA
ATOM     47  HG1 THR A   7      43.956  24.648  85.849  0.00  0.00    +0.210 HD
ENDBRANCH  44  46
ENDBRANCH  12  44
ENDBRANCH  10  12
ENDBRANCH   6   8
ENDBRANCH   4   6
ENDBRANCH   1   2
BRANCH   1  50
ATOM     48  C   GLU A   4      38.994  24.136  84.948  0.00  0.00    +0.241 C 
ATOM     49  O   GLU A   4      39.294  24.368  86.142  0.00  0.00    -0.273 OA
ATOM     50  N   LEU A   5      38.024  23.295  84.600  0.00  0.00    -0.297 N 
ATOM     51  H   LEU A   5      37.789  23.164  83.595  0.00  0.00    +0.150 HD
BRANCH  48  52
ATOM     52  CA  GLU A   4      39.738  24.844  83.834  0.00  0.00    +0.149 C 
BRANCH  52  55
ATOM     53  C   SER A   3      40.878  22.850  82.992  0.00  0.00    +0.243 C 
ATOM     54  O   SER A   3      41.473  22.701  84.074  0.00  0.00    -0.273 OA
ATOM     55  N   GLU A   4      40.083  23.878  82.769  0.00  0.00    -0.297 N 
ATOM     56  H   GLU A   4      39.687  24.013  81.817  0.00  0.00    +0.150 HD
BRANCH  53  57
ATOM     57  CA  SER A   3      41.082  21.827  81.898  0.00  0.00    +0.178 C 
BRANCH  57  60
ATOM     58  C   PHE A   2      38.791  21.045  81.711  0.00  0.00    +0.241 C 
ATOM     59  O   PHE A   2      38.768  20.730  82.899  0.00  0.00    -0.273 OA
ATOM     60  N   SER A   3      39.835  21.611  81.133  0.00  0.00    -0.295 N 
ATOM     61  H   SER A   3      39.780  21.906  80.137  0.00  0.00    +0.150 HD
BRANCH  58  62
ATOM     62  CA  PHE A   2      37.571  20.820  80.818  0.00  0.00    +0.153 C 
BRANCH  62  65
ATOM     63  C   LYS A   1      37.033  23.179  80.567  0.00  0.00    +0.238 C 
ATOM     64  O   LYS A   1      36.991  23.309  81.804  0.00  0.00    -0.274 OA
ATOM     65  N   PHE A   2      37.265  22.009  80.012  0.00  0.00    -0.297 N 
ATOM     66  H   PHE A   2      37.231  21.924  78.976  0.00  0.00    +0.150 HD
BRANCH  63  67
ATOM     67  CA  LYS A   1      36.750  24.350  79.650  0.00  0.00    +0.145 C 
BRANCH  67  68
ATOM     68  N   LYS A   1      37.677  24.434  78.527  0.00  0.00    -0.238 NA
ATOM     69  H   LYS A   1      37.355  24.265  77.552  0.00  0.00    +0.142 HD
ENDBRANCH  67  68
BRANCH  67  70
ATOM     70  CB  LYS A   1      35.317  24.273  79.124  0.00  0.00    +0.026 C 
BRANCH  70  71
ATOM     71  CG  LYS A   1      34.272  24.378  80.231  0.00  0.00    -0.000 C 
BRANCH  71  72
ATOM     72  CD  LYS A   1      34.384  25.661  81.035  0.00  0.00    -0.024 C 
BRANCH  72  73
ATOM     73  CE  LYS A   1      33.312  25.732  82.109  0.00  0.00    -0.086 C 
BRANCH  73  74
ATOM     74  NZ  LYS A   1      33.109  27.159  82.548  0.00  0.00    +0.380 N 
ATOM     75  HZ1 LYS A   1      32.373  27.193  83.282  0.00  0.00    -0.089 HD
ATOM     76  HZ2 LYS A   1      34.001  27.533  82.931  0.00  0.00    -0.089 HD
ATOM     77  HZ3 LYS A   1      32.813  27.733  81.732  0.00  0.00    -0.089 HD
ENDBRANCH  73  74
ENDBRANCH  72  73
ENDBRANCH  71  72
ENDBRANCH  70  71
ENDBRANCH  67  70
ENDBRANCH  63  67
ENDBRANCH  62  65
BRANCH  62  78
ATOM     78  CB  PHE A   2      37.807  19.655  79.833  0.00  0.00    +0.055 C 
BRANCH  78  79
ATOM     79  CG  PHE A   2      38.459  18.477  80.552  0.00  0.00    -0.020 A 
ATOM     80  CD2 PHE A   2      37.789  17.698  81.456  0.00  0.00    -0.004 A 
ATOM     81  CE2 PHE A   2      38.429  16.663  82.095  0.00  0.00    -0.000 A 
ATOM     82  CZ  PHE A   2      39.769  16.418  81.876  0.00  0.00    -0.000 A 
ATOM     83  CE1 PHE A   2      40.448  17.152  80.943  0.00  0.00    -0.000 A 
ATOM     84  CD1 PHE A   2      39.781  18.207  80.315  0.00  0.00    -0.004 A 
ENDBRANCH  78  79
ENDBRANCH  62  78
ENDBRANCH  58  62
ENDBRANCH  57  60
BRANCH  57  85
ATOM     85  CB  SER A   3      42.240  22.138  80.969  0.00  0.00    +0.166 C 
BRANCH  85  86
ATOM     86  OG  SER A   3      42.073  23.376  80.300  0.00  0.00    -0.380 OA
ATOM     87  H   SER A   3      41.244  23.349  79.760  0.00  0.00    +0.211 HD
ENDBRANCH  85  86
ENDBRANCH  57  85
ENDBRANCH  53  57
ENDBRANCH  52  55
BRANCH  52  88
ATOM     88  CB  GLU A   4      38.866  25.948  83.268  0.00  0.00    +0.041 C 
BRANCH  88  89
ATOM     89  CG  GLU A   4      38.300  27.024  84.113  0.00  0.00    +0.116 C 
BRANCH  89  90
ATOM     90  CD  GLU A   4      37.191  27.730  83.313  0.00  0.00    +0.365 C 
ATOM     91  OE2 GLU A   4      36.019  27.680  83.753  0.00  0.00    -0.246 OA
ATOM     92  OE1 GLU A   4      37.536  28.248  82.220  0.00  0.00    -0.246 OA
ENDBRANCH  89  90
ENDBRANCH  88  89
ENDBRANCH  52  88
ENDBRANCH  48  52
ENDBRANCH   1  50
BRANCH   1  93
ATOM     93  CB  LEU A   5      36.102  21.819  84.967  0.00  0.00    +0.029 C 
BRANCH  93  94
ATOM     94  CG  LEU A   5      34.993  22.728  84.468  0.00  0.00    +0.002 C 
ATOM     95  CD2 LEU A   5      34.246  23.367  85.617  0.00  0.00    +0.000 C 
ATOM     96  CD1 LEU A   5      34.078  21.949  83.544  0.00  0.00    +0.000 C 
ENDBRANCH  93  94
ENDBRANCH   1  93
TORSDOF 44
REMARK  Name = ../refined-set-2016/1fcz/1fcz_pocket.pdb
REMARK  259 active torsions:
REMARK  status: ('A' for Active; 'I' for Inactive)
REMARK    1  A    between atoms: _1  and  _3
REMARK    2  A    between atoms: _3  and  _4
REMARK    3  A    between atoms: _3  and  _6
REMARK    4  A    between atoms: _6  and  _7
REMARK    5  A    between atoms: _10  and  _12
REMARK    6  A    between atoms: _12  and  _13
REMARK    7  A    between atoms: _12  and  _15
REMARK    8  A    between atoms: _15  and  _16
REMARK    9  A    between atoms: _23  and  _24
REMARK   10  A    between atoms: _29  and  _31
REMARK   11  A    between atoms: _31  and  _32
REMARK   12  A    between atoms: _31  and  _34
REMARK   13  A    between atoms: _34  and  _35
REMARK   14  A    between atoms: _38  and  _40
REMARK   15  A    between atoms: _40  and  _41
REMARK   16  A    between atoms: _40  and  _43
REMARK   17  A    between atoms: _43  and  _44
REMARK   18  A    between atoms: _54  and  _56
REMARK   19  A    between atoms: _56  and  _57
REMARK   20  A    between atoms: _56  and  _59
REMARK   21  A    between atoms: _59  and  _60
REMARK   22  A    between atoms: _60  and  _61
REMARK   23  A    between atoms: _61  and  _62
REMARK   24  A    between atoms: _62  and  _63
REMARK   25  A    between atoms: _67  and  _69
REMARK   26  A    between atoms: _69  and  _70
REMARK   27  A    between atoms: _69  and  _72
REMARK   28  A    between atoms: _72  and  _73
REMARK   29  A    between atoms: _79  and  _81
REMARK   30  A    between atoms: _81  and  _82
REMARK   31  A    between atoms: _81  and  _84
REMARK   32  A    between atoms: _84  and  _85
REMARK   33  A    between atoms: _87  and  _89
REMARK   34  A    between atoms: _89  and  _90
REMARK   35  A    between atoms: _89  and  _92
REMARK   36  A    between atoms: _92  and  _93
REMARK   37  A    between atoms: _93  and  _94
REMARK   38  A    between atoms: _97  and  _99
REMARK   39  A    between atoms: _99  and  _100
REMARK   40  A    between atoms: _99  and  _102
REMARK   41  A    between atoms: _102  and  _103
REMARK   42  A    between atoms: _106  and  _108
REMARK   43  A    between atoms: _108  and  _109
REMARK   44  A    between atoms: _112  and  _114
REMARK   45  A    between atoms: _114  and  _115
REMARK   46  A    between atoms: _114  and  _117
REMARK   47  A    between atoms: _117  and  _118
REMARK   48  A    between atoms: _121  and  _123
REMARK   49  A    between atoms: _123  and  _124
REMARK   50  A    between atoms: _123  and  _126
REMARK   51  A    between atoms: _126  and  _127
REMARK   52  A    between atoms: _127  and  _128
REMARK   53  A    between atoms: _128  and  _129
REMARK   54  A    between atoms: _129  and  _130
REMARK   55  A    between atoms: _134  and  _136
REMARK   56  A    between atoms: _136  and  _137
REMARK   57  A    between atoms: _136  and  _139
REMARK   58  A    between atoms: _141  and  _143
REMARK   59  A    between atoms: _143  and  _144
REMARK   60  A    between atoms: _143  and  _146
REMARK   61  A    between atoms: _146  and  _147
REMARK   62  A    between atoms: _150  and  _152
REMARK   63  A    between atoms: _152  and  _153
REMARK   64  A    between atoms: _152  and  _155
REMARK   65  A    between atoms: _155  and  _156
REMARK   66  A    between atoms: _156  and  _157
REMARK   67  A    between atoms: _157  and  _158
REMARK   68  A    between atoms: _158  and  _159
REMARK   69  A    between atoms: _163  and  _165
REMARK   70  A    between atoms: _165  and  _166
REMARK   71  A    between atoms: _165  and  _168
REMARK   72  A    between atoms: _168  and  _169
REMARK   73  A    between atoms: _172  and  _174
REMARK   74  A    between atoms: _174  and  _175
REMARK   75  A    between atoms: _174  and  _177
REMARK   76  A    between atoms: _179  and  _181
REMARK   77  A    between atoms: _181  and  _182
REMARK   78  A    between atoms: _181  and  _184
REMARK   79  A    between atoms: _184  and  _185
REMARK   80  A    between atoms: _188  and  _190
REMARK   81  A    between atoms: _190  and  _191
REMARK   82  A    between atoms: _190  and  _193
REMARK   83  A    between atoms: _193  and  _194
REMARK   84  A    between atoms: _197  and  _199
REMARK   85  A    between atoms: _199  and  _200
REMARK   86  A    between atoms: _199  and  _202
REMARK   87  A    between atoms: _202  and  _203
REMARK   88  A    between atoms: _206  and  _208
REMARK   89  A    between atoms: _208  and  _209
REMARK   90  A    between atoms: _208  and  _211
REMARK   91  A    between atoms: _211  and  _212
REMARK   92  A    between atoms: _215  and  _217
REMARK   93  A    between atoms: _217  and  _218
REMARK   94  A    between atoms: _217  and  _220
REMARK   95  A    between atoms: _220  and  _221
REMARK   96  A    between atoms: _221  and  _222
REMARK   97  A    between atoms: _224  and  _226
REMARK   98  A    between atoms: _226  and  _227
REMARK   99  A    between atoms: _226  and  _229
REMARK  100  A    between atoms: _229  and  _230
REMARK  101  A    between atoms: _233  and  _235
REMARK  102  A    between atoms: _235  and  _236
REMARK  103  A    between atoms: _235  and  _238
REMARK  104  A    between atoms: _238  and  _239
REMARK  105  A    between atoms: _239  and  _240
REMARK  106  A    between atoms: _240  and  _241
REMARK  107  A    between atoms: _250  and  _252
REMARK  108  A    between atoms: _252  and  _253
REMARK  109  A    between atoms: _252  and  _255
REMARK  110  A    between atoms: _255  and  _256
REMARK  111  A    between atoms: _259  and  _261
REMARK  112  A    between atoms: _261  and  _262
REMARK  113  A    between atoms: _261  and  _264
REMARK  114  A    between atoms: _266  and  _268
REMARK  115  A    between atoms: _268  and  _269
REMARK  116  A    between atoms: _268  and  _271
REMARK  117  A    between atoms: _271  and  _272
REMARK  118  A    between atoms: _275  and  _277
REMARK  119  A    between atoms: _277  and  _278
REMARK  120  A    between atoms: _277  and  _280
REMARK  121  A    between atoms: _280  and  _281
REMARK  122  A    between atoms: _281  and  _282
REMARK  123  A    between atoms: _282  and  _283
REMARK  124  A    between atoms: _292  and  _294
REMARK  125  A    between atoms: _294  and  _295
REMARK  126  A    between atoms: _294  and  _297
REMARK  127  A    between atoms: _297  and  _298
REMARK  128  A    between atoms: _298  and  _299
REMARK  129  A    between atoms: _301  and  _303
REMARK  130  A    between atoms: _303  and  _304
REMARK  131  A    between atoms: _303  and  _306
REMARK  132  A    between atoms: _306  and  _307
REMARK  133  A    between atoms: _310  and  _312
REMARK  134  A    between atoms: _312  and  _313
REMARK  135  A    between atoms: _312  and  _315
REMARK  136  A    between atoms: _315  and  _316
REMARK  137  A    between atoms: _322  and  _324
REMARK  138  A    between atoms: _324  and  _325
REMARK  139  A    between atoms: _324  and  _327
REMARK  140  A    between atoms: _327  and  _328
REMARK  141  A    between atoms: _330  and  _332
REMARK  142  A    between atoms: _332  and  _333
REMARK  143  A    between atoms: _332  and  _335
REMARK  144  A    between atoms: _335  and  _336
REMARK  145  A    between atoms: _339  and  _341
REMARK  146  A    between atoms: _341  and  _342
REMARK  147  A    between atoms: _344  and  _346
REMARK  148  A    between atoms: _346  and  _347
REMARK  149  A    between atoms: _346  and  _349
REMARK  150  A    between atoms: _349  and  _350
REMARK  151  A    between atoms: _353  and  _355
REMARK  152  A    between atoms: _355  and  _356
REMARK  153  A    between atoms: _355  and  _358
REMARK  154  A    between atoms: _358  and  _359
REMARK  155  A    between atoms: _359  and  _360
REMARK  156  A    between atoms: _362  and  _364
REMARK  157  A    between atoms: _364  and  _365
REMARK  158  A    between atoms: _364  and  _367
REMARK  159  A    between atoms: _367  and  _368
REMARK  160  A    between atoms: _373  and  _375
REMARK  161  A    between atoms: _375  and  _376
REMARK  162  A    between atoms: _379  and  _381
REMARK  163  A    between atoms: _381  and  _382
REMARK  164  A    between atoms: _384  and  _386
REMARK  165  A    between atoms: _386  and  _387
REMARK  166  A    between atoms: _386  and  _389
REMARK  167  A    between atoms: _389  and  _390
REMARK  168  A    between atoms: _396  and  _398
REMARK  169  A    between atoms: _398  and  _399
REMARK  170  A    between atoms: _401  and  _403
REMARK  171  A    between atoms: _403  and  _404
REMARK  172  A    between atoms: _403  and  _406
REMARK  173  A    between atoms: _406  and  _407
REMARK  174  A    between atoms: _410  and  _412
REMARK  175  A    between atoms: _412  and  _413
REMARK  176  A    between atoms: _412  and  _415
REMARK  177  A    between atoms: _415  and  _416
REMARK  178  A    between atoms: _419  and  _421
REMARK  179  A    between atoms: _421  and  _422
REMARK  180  A    between atoms: _421  and  _424
REMARK  181  A    between atoms: _427  and  _429
REMARK  182  A    between atoms: _429  and  _430
REMARK  183  A    between atoms: _429  and  _432
REMARK  184  A    between atoms: _432  and  _433
REMARK  185  A    between atoms: _436  and  _438
REMARK  186  A    between atoms: _438  and  _439
REMARK  187  A    between atoms: _438  and  _441
REMARK  188  A    between atoms: _441  and  _442
REMARK  189  A    between atoms: _445  and  _447
REMARK  190  A    between atoms: _447  and  _448
REMARK  191  A    between atoms: _447  and  _450
REMARK  192  A    between atoms: _450  and  _451
REMARK  193  A    between atoms: _453  and  _455
REMARK  194  A    between atoms: _455  and  _456
REMARK  195  A    between atoms: _455  and  _458
REMARK  196  A    between atoms: _458  and  _459
REMARK  197  A    between atoms: _459  and  _460
REMARK  198  A    between atoms: _460  and  _461
REMARK  199  A    between atoms: _461  and  _462
REMARK  200  A    between atoms: _466  and  _468
REMARK  201  A    between atoms: _468  and  _469
REMARK  202  A    between atoms: _471  and  _473
REMARK  203  A    between atoms: _473  and  _474
REMARK  204  A    between atoms: _477  and  _479
REMARK  205  A    between atoms: _479  and  _480
REMARK  206  A    between atoms: _479  and  _482
REMARK  207  A    between atoms: _483  and  _484
REMARK  208  A    between atoms: _487  and  _489
REMARK  209  A    between atoms: _489  and  _490
REMARK  210  A    between atoms: _489  and  _492
REMARK  211  A    between atoms: _492  and  _493
REMARK  212  A    between atoms: _493  and  _494
REMARK  213  A    between atoms: _494  and  _495
REMARK  214  A    between atoms: _504  and  _506
REMARK  215  A    between atoms: _506  and  _507
REMARK  216  A    between atoms: _510  and  _512
REMARK  217  A    between atoms: _512  and  _513
REMARK  218  A    between atoms: _512  and  _515
REMARK  219  A    between atoms: _515  and  _516
REMARK  220  A    between atoms: _519  and  _521
REMARK  221  A    between atoms: _521  and  _522
REMARK  222  A    between atoms: _521  and  _524
REMARK  223  A    between atoms: _524  and  _525
REMARK  224  A    between atoms: _528  and  _530
REMARK  225  A    between atoms: _530  and  _531
REMARK  226  A    between atoms: _530  and  _533
REMARK  227  A    between atoms: _533  and  _534
REMARK  228  A    between atoms: _537  and  _539
REMARK  229  A    between atoms: _539  and  _540
REMARK  230  A    between atoms: _539  and  _542
REMARK  231  A    between atoms: _542  and  _543
REMARK  232  A    between atoms: _543  and  _544
REMARK  233  A    between atoms: _544  and  _545
REMARK  234  A    between atoms: _545  and  _546
REMARK  235  A    between atoms: _550  and  _552
REMARK  236  A    between atoms: _552  and  _553
REMARK  237  A    between atoms: _552  and  _555
REMARK  238  A    between atoms: _555  and  _556
REMARK  239  A    between atoms: _556  and  _557
REMARK  240  A    between atoms: _560  and  _561
REMARK  241  A    between atoms: _566  and  _568
REMARK  242  A    between atoms: _568  and  _569
REMARK  243  A    between atoms: _568  and  _571
REMARK  244  A    between atoms: _571  and  _572
REMARK  245  A    between atoms: _575  and  _577
REMARK  246  A    between atoms: _577  and  _578
REMARK  247  A    between atoms: _577  and  _580
REMARK  248  A    between atoms: _580  and  _581
REMARK  249  A    between atoms: _581  and  _582
REMARK  250  A    between atoms: _582  and  _583
REMARK  251  A    between atoms: _592  and  _594
REMARK  252  A    between atoms: _594  and  _595
REMARK  253  A    between atoms: _594  and  _597
REMARK  254  A    between atoms: _597  and  _598
REMARK  255  A    between atoms: _598  and  _599
REMARK  256  A    between atoms: _601  and  _603
REMARK  257  A    between atoms: _603  and  _604
REMARK  258  A    between atoms: _603  and  _606
REMARK  259  A    between atoms: _606  and  _607
REMARK                            x       y       z     vdW  Elec       q    Type
REMARK                         _______ _______ _______ _____ _____    ______ ____
ROOT
ATOM      1  CA  LYS A   1      38.993  20.999  95.913  0.00  0.00    +0.145 C 
ENDROOT
BRANCH   1   2
ATOM      2  C   LYS A   1      39.525  19.692  96.545  0.00  0.00    +0.238 C 
ATOM      3  O   LYS A   1      39.277  19.434  97.727  0.00  0.00    -0.274 OA
ATOM      4  N   ILE A   2      40.337  18.925  95.789  0.00  0.00    -0.298 N 
ATOM      5  H   ILE A   2      40.556  19.199  94.810  0.00  0.00    +0.150 HD
BRANCH   4   6
ATOM      6  CA  ILE A   2      40.908  17.702  96.361  0.00  0.00    +0.137 C 
BRANCH   6   7
ATOM      7  C   ILE A   2      41.928  18.060  97.437  0.00  0.00    +0.227 C 
ATOM      8  O   ILE A   2      42.037  17.346  98.460  0.00  0.00    -0.286 OA
ENDBRANCH   6   7
BRANCH   6   9
ATOM      9  CB  ILE A   2      41.480  16.831  95.246  0.00  0.00    +0.026 C 
ATOM     10  CG2 ILE A   2      42.342  15.714  95.809  0.00  0.00    +0.002 C 
BRANCH   9  11
ATOM     11  CG1 ILE A   2      40.373  16.267  94.351  0.00  0.00    +0.002 C 
ATOM     12  CD1 ILE A   2      40.842  15.781  92.995  0.00  0.00    +0.000 C 
ENDBRANCH   9  11
ENDBRANCH   6   9
ENDBRANCH   4   6
ENDBRANCH   1   2
BRANCH   1  13
ATOM     13  N   LYS A   1      39.985  21.634  95.037  0.00  0.00    -0.238 NA
ATOM     14  H   LYS A   1      39.771  21.741  94.025  0.00  0.00    +0.142 HD
ENDBRANCH   1  13
BRANCH   1  15
ATOM     15  CB  LYS A   1      37.685  20.736  95.226  0.00  0.00    +0.026 C 
BRANCH  15  16
ATOM     16  CG  LYS A   1      36.870  21.932  94.773  0.00  0.00    -0.000 C 
BRANCH  16  17
ATOM     17  CD  LYS A   1      36.367  22.741  95.952  0.00  0.00    -0.024 C 
BRANCH  17  18
ATOM     18  CE  LYS A   1      35.395  23.775  95.367  0.00  0.00    -0.086 C 
BRANCH  18  19
ATOM     19  NZ  LYS A   1      35.025  24.736  96.399  0.00  0.00    +0.380 N 
ATOM     20  HZ1 LYS A   1      34.566  24.237  97.188  0.00  0.00    -0.089 HD
ATOM     21  HZ2 LYS A   1      35.879  25.219  96.743  0.00  0.00    -0.089 HD
ATOM     22  HZ3 LYS A   1      34.367  25.435  96.000  0.00  0.00    -0.089 HD
ENDBRANCH  18  19
ENDBRANCH  17  18
ENDBRANCH  16  17
ENDBRANCH  15  16
ENDBRANCH   1  15
TORSDOF 11
REMARK  Name = ../refined-set-2016/1fcz/1fcz_pocket.pdb
REMARK  259 active torsions:
REMARK  status: ('A' for Active; 'I' for Inactive)
REMARK    1  A    between atoms: _1  and  _3
REMARK    2  A    between atoms: _3  and  _4
REMARK    3  A    between atoms: _3  and  _6
REMARK    4  A    between atoms: _6  and  _7
REMARK    5  A    between atoms: _10  and  _12
REMARK    6  A    between atoms: _12  and  _13
REMARK    7  A    between atoms: _12  and  _15
REMARK    8  A    between atoms: _15  and  _16
REMARK    9  A    between atoms: _23  and  _24
REMARK   10  A    between atoms: _29  and  _31
REMARK   11  A    between atoms: _31  and  _32
REMARK   12  A    between atoms: _31  and  _34
REMARK   13  A    between atoms: _34  and  _35
REMARK   14  A    between atoms: _38  and  _40
REMARK   15  A    between atoms: _40  and  _41
REMARK   16  A    between atoms: _40  and  _43
REMARK   17  A    between atoms: _43  and  _44
REMARK   18  A    between atoms: _54  and  _56
REMARK   19  A    between atoms: _56  and  _57
REMARK   20  A    between atoms: _56  and  _59
REMARK   21  A    between atoms: _59  and  _60
REMARK   22  A    between atoms: _60  and  _61
REMARK   23  A    between atoms: _61  and  _62
REMARK   24  A    between atoms: _62  and  _63
REMARK   25  A    between atoms: _67  and  _69
REMARK   26  A    between atoms: _69  and  _70
REMARK   27  A    between atoms: _69  and  _72
REMARK   28  A    between atoms: _72  and  _73
REMARK   29  A    between atoms: _79  and  _81
REMARK   30  A    between atoms: _81  and  _82
REMARK   31  A    between atoms: _81  and  _84
REMARK   32  A    between atoms: _84  and  _85
REMARK   33  A    between atoms: _87  and  _89
REMARK   34  A    between atoms: _89  and  _90
REMARK   35  A    between atoms: _89  and  _92
REMARK   36  A    between atoms: _92  and  _93
REMARK   37  A    between atoms: _93  and  _94
REMARK   38  A    between atoms: _97  and  _99
REMARK   39  A    between atoms: _99  and  _100
REMARK   40  A    between atoms: _99  and  _102
REMARK   41  A    between atoms: _102  and  _103
REMARK   42  A    between atoms: _106  and  _108
REMARK   43  A    between atoms: _108  and  _109
REMARK   44  A    between atoms: _112  and  _114
REMARK   45  A    between atoms: _114  and  _115
REMARK   46  A    between atoms: _114  and  _117
REMARK   47  A    between atoms: _117  and  _118
REMARK   48  A    between atoms: _121  and  _123
REMARK   49  A    between atoms: _123  and  _124
REMARK   50  A    between atoms: _123  and  _126
REMARK   51  A    between atoms: _126  and  _127
REMARK   52  A    between atoms: _127  and  _128
REMARK   53  A    between atoms: _128  and  _129
REMARK   54  A    between atoms: _129  and  _130
REMARK   55  A    between atoms: _134  and  _136
REMARK   56  A    between atoms: _136  and  _137
REMARK   57  A    between atoms: _136  and  _139
REMARK   58  A    between atoms: _141  and  _143
REMARK   59  A    between atoms: _143  and  _144
REMARK   60  A    between atoms: _143  and  _146
REMARK   61  A    between atoms: _146  and  _147
REMARK   62  A    between atoms: _150  and  _152
REMARK   63  A    between atoms: _152  and  _153
REMARK   64  A    between atoms: _152  and  _155
REMARK   65  A    between atoms: _155  and  _156
REMARK   66  A    between atoms: _156  and  _157
REMARK   67  A    between atoms: _157  and  _158
REMARK   68  A    between atoms: _158  and  _159
REMARK   69  A    between atoms: _163  and  _165
REMARK   70  A    between atoms: _165  and  _166
REMARK   71  A    between atoms: _165  and  _168
REMARK   72  A    between atoms: _168  and  _169
REMARK   73  A    between atoms: _172  and  _174
REMARK   74  A    between atoms: _174  and  _175
REMARK   75  A    between atoms: _174  and  _177
REMARK   76  A    between atoms: _179  and  _181
REMARK   77  A    between atoms: _181  and  _182
REMARK   78  A    between atoms: _181  and  _184
REMARK   79  A    between atoms: _184  and  _185
REMARK   80  A    between atoms: _188  and  _190
REMARK   81  A    between atoms: _190  and  _191
REMARK   82  A    between atoms: _190  and  _193
REMARK   83  A    between atoms: _193  and  _194
REMARK   84  A    between atoms: _197  and  _199
REMARK   85  A    between atoms: _199  and  _200
REMARK   86  A    between atoms: _199  and  _202
REMARK   87  A    between atoms: _202  and  _203
REMARK   88  A    between atoms: _206  and  _208
REMARK   89  A    between atoms: _208  and  _209
REMARK   90  A    between atoms: _208  and  _211
REMARK   91  A    between atoms: _211  and  _212
REMARK   92  A    between atoms: _215  and  _217
REMARK   93  A    between atoms: _217  and  _218
REMARK   94  A    between atoms: _217  and  _220
REMARK   95  A    between atoms: _220  and  _221
REMARK   96  A    between atoms: _221  and  _222
REMARK   97  A    between atoms: _224  and  _226
REMARK   98  A    between atoms: _226  and  _227
REMARK   99  A    between atoms: _226  and  _229
REMARK  100  A    between atoms: _229  and  _230
REMARK  101  A    between atoms: _233  and  _235
REMARK  102  A    between atoms: _235  and  _236
REMARK  103  A    between atoms: _235  and  _238
REMARK  104  A    between atoms: _238  and  _239
REMARK  105  A    between atoms: _239  and  _240
REMARK  106  A    between atoms: _240  and  _241
REMARK  107  A    between atoms: _250  and  _252
REMARK  108  A    between atoms: _252  and  _253
REMARK  109  A    between atoms: _252  and  _255
REMARK  110  A    between atoms: _255  and  _256
REMARK  111  A    between atoms: _259  and  _261
REMARK  112  A    between atoms: _261  and  _262
REMARK  113  A    between atoms: _261  and  _264
REMARK  114  A    between atoms: _266  and  _268
REMARK  115  A    between atoms: _268  and  _269
REMARK  116  A    between atoms: _268  and  _271
REMARK  117  A    between atoms: _271  and  _272
REMARK  118  A    between atoms: _275  and  _277
REMARK  119  A    between atoms: _277  and  _278
REMARK  120  A    between atoms: _277  and  _280
REMARK  121  A    between atoms: _280  and  _281
REMARK  122  A    between atoms: _281  and  _282
REMARK  123  A    between atoms: _282  and  _283
REMARK  124  A    between atoms: _292  and  _294
REMARK  125  A    between atoms: _294  and  _295
REMARK  126  A    between atoms: _294  and  _297
REMARK  127  A    between atoms: _297  and  _298
REMARK  128  A    between atoms: _298  and  _299
REMARK  129  A    between atoms: _301  and  _303
REMARK  130  A    between atoms: _303  and  _304
REMARK  131  A    between atoms: _303  and  _306
REMARK  132  A    between atoms: _306  and  _307
REMARK  133  A    between atoms: _310  and  _312
REMARK  134  A    between atoms: _312  and  _313
REMARK  135  A    between atoms: _312  and  _315
REMARK  136  A    between atoms: _315  and  _316
REMARK  137  A    between atoms: _322  and  _324
REMARK  138  A    between atoms: _324  and  _325
REMARK  139  A    between atoms: _324  and  _327
REMARK  140  A    between atoms: _327  and  _328
REMARK  141  A    between atoms: _330  and  _332
REMARK  142  A    between atoms: _332  and  _333
REMARK  143  A    between atoms: _332  and  _335
REMARK  144  A    between atoms: _335  and  _336
REMARK  145  A    between atoms: _339  and  _341
REMARK  146  A    between atoms: _341  and  _342
REMARK  147  A    between atoms: _344  and  _346
REMARK  148  A    between atoms: _346  and  _347
REMARK  149  A    between atoms: _346  and  _349
REMARK  150  A    between atoms: _349  and  _350
REMARK  151  A    between atoms: _353  and  _355
REMARK  152  A    between atoms: _355  and  _356
REMARK  153  A    between atoms: _355  and  _358
REMARK  154  A    between atoms: _358  and  _359
REMARK  155  A    between atoms: _359  and  _360
REMARK  156  A    between atoms: _362  and  _364
REMARK  157  A    between atoms: _364  and  _365
REMARK  158  A    between atoms: _364  and  _367
REMARK  159  A    between atoms: _367  and  _368
REMARK  160  A    between atoms: _373  and  _375
REMARK  161  A    between atoms: _375  and  _376
REMARK  162  A    between atoms: _379  and  _381
REMARK  163  A    between atoms: _381  and  _382
REMARK  164  A    between atoms: _384  and  _386
REMARK  165  A    between atoms: _386  and  _387
REMARK  166  A    between atoms: _386  and  _389
REMARK  167  A    between atoms: _389  and  _390
REMARK  168  A    between atoms: _396  and  _398
REMARK  169  A    between atoms: _398  and  _399
REMARK  170  A    between atoms: _401  and  _403
REMARK  171  A    between atoms: _403  and  _404
REMARK  172  A    between atoms: _403  and  _406
REMARK  173  A    between atoms: _406  and  _407
REMARK  174  A    between atoms: _410  and  _412
REMARK  175  A    between atoms: _412  and  _413
REMARK  176  A    between atoms: _412  and  _415
REMARK  177  A    between atoms: _415  and  _416
REMARK  178  A    between atoms: _419  and  _421
REMARK  179  A    between atoms: _421  and  _422
REMARK  180  A    between atoms: _421  and  _424
REMARK  181  A    between atoms: _427  and  _429
REMARK  182  A    between atoms: _429  and  _430
REMARK  183  A    between atoms: _429  and  _432
REMARK  184  A    between atoms: _432  and  _433
REMARK  185  A    between atoms: _436  and  _438
REMARK  186  A    between atoms: _438  and  _439
REMARK  187  A    between atoms: _438  and  _441
REMARK  188  A    between atoms: _441  and  _442
REMARK  189  A    between atoms: _445  and  _447
REMARK  190  A    between atoms: _447  and  _448
REMARK  191  A    between atoms: _447  and  _450
REMARK  192  A    between atoms: _450  and  _451
REMARK  193  A    between atoms: _453  and  _455
REMARK  194  A    between atoms: _455  and  _456
REMARK  195  A    between atoms: _455  and  _458
REMARK  196  A    between atoms: _458  and  _459
REMARK  197  A    between atoms: _459  and  _460
REMARK  198  A    between atoms: _460  and  _461
REMARK  199  A    between atoms: _461  and  _462
REMARK  200  A    between atoms: _466  and  _468
REMARK  201  A    between atoms: _468  and  _469
REMARK  202  A    between atoms: _471  and  _473
REMARK  203  A    between atoms: _473  and  _474
REMARK  204  A    between atoms: _477  and  _479
REMARK  205  A    between atoms: _479  and  _480
REMARK  206  A    between atoms: _479  and  _482
REMARK  207  A    between atoms: _483  and  _484
REMARK  208  A    between atoms: _487  and  _489
REMARK  209  A    between atoms: _489  and  _490
REMARK  210  A    between atoms: _489  and  _492
REMARK  211  A    between atoms: _492  and  _493
REMARK  212  A    between atoms: _493  and  _494
REMARK  213  A    between atoms: _494  and  _495
REMARK  214  A    between atoms: _504  and  _506
REMARK  215  A    between atoms: _506  and  _507
REMARK  216  A    between atoms: _510  and  _512
REMARK  217  A    between atoms: _512  and  _513
REMARK  218  A    between atoms: _512  and  _515
REMARK  219  A    between atoms: _515  and  _516
REMARK  220  A    between atoms: _519  and  _521
REMARK  221  A    between atoms: _521  and  _522
REMARK  222  A    between atoms: _521  and  _524
REMARK  223  A    between atoms: _524  and  _525
REMARK  224  A    between atoms: _528  and  _530
REMARK  225  A    between atoms: _530  and  _531
REMARK  226  A    between atoms: _530  and  _533
REMARK  227  A    between atoms: _533  and  _534
REMARK  228  A    between atoms: _537  and  _539
REMARK  229  A    between atoms: _539  and  _540
REMARK  230  A    between atoms: _539  and  _542
REMARK  231  A    between atoms: _542  and  _543
REMARK  232  A    between atoms: _543  and  _544
REMARK  233  A    between atoms: _544  and  _545
REMARK  234  A    between atoms: _545  and  _546
REMARK  235  A    between atoms: _550  and  _552
REMARK  236  A    between atoms: _552  and  _553
REMARK  237  A    between atoms: _552  and  _555
REMARK  238  A    between atoms: _555  and  _556
REMARK  239  A    between atoms: _556  and  _557
REMARK  240  A    between atoms: _560  and  _561
REMARK  241  A    between atoms: _566  and  _568
REMARK  242  A    between atoms: _568  and  _569
REMARK  243  A    between atoms: _568  and  _571
REMARK  244  A    between atoms: _571  and  _572
REMARK  245  A    between atoms: _575  and  _577
REMARK  246  A    between atoms: _577  and  _578
REMARK  247  A    between atoms: _577  and  _580
REMARK  248  A    between atoms: _580  and  _581
REMARK  249  A    between atoms: _581  and  _582
REMARK  250  A    between atoms: _582  and  _583
REMARK  251  A    between atoms: _592  and  _594
REMARK  252  A    between atoms: _594  and  _595
REMARK  253  A    between atoms: _594  and  _597
REMARK  254  A    between atoms: _597  and  _598
REMARK  255  A    between atoms: _598  and  _599
REMARK  256  A    between atoms: _601  and  _603
REMARK  257  A    between atoms: _603  and  _604
REMARK  258  A    between atoms: _603  and  _606
REMARK  259  A    between atoms: _606  and  _607
REMARK                            x       y       z     vdW  Elec       q    Type
REMARK                         _______ _______ _______ _____ _____    ______ ____
ROOT
ATOM      1  C   LEU A   7      35.830   9.471  90.472  0.00  0.00    +0.241 C 
ATOM      2  N   ARG A   8      36.130  10.738  90.770  0.00  0.00    -0.297 N 
ATOM      3  H   ARG A   8      37.130  10.986  90.914  0.00  0.00    +0.150 HD
ATOM      4  O   LEU A   7      34.657   9.131  90.307  0.00  0.00    -0.273 OA
ENDROOT
BRANCH   1   5
ATOM      5  CA  LEU A   7      36.983   8.481  90.417  0.00  0.00    +0.149 C 
BRANCH   5   7
ATOM      6  C   MET A   6      37.854   9.445  88.361  0.00  0.00    +0.241 C 
ATOM      7  N   LEU A   7      38.080   9.059  89.613  0.00  0.00    -0.297 N 
ATOM      8  H   LEU A   7      39.029   9.164  90.026  0.00  0.00    +0.150 HD
ATOM      9  O   MET A   6      36.763   9.222  87.795  0.00  0.00    -0.273 OA
BRANCH   6  10
ATOM     10  CA  MET A   6      38.979  10.103  87.614  0.00  0.00    +0.149 C 
BRANCH  10  13
ATOM     11  C   LEU A   5      38.999  12.184  88.840  0.00  0.00    +0.241 C 
ATOM     12  O   LEU A   5      37.812  12.370  88.535  0.00  0.00    -0.273 OA
ATOM     13  N   MET A   6      39.654  11.085  88.448  0.00  0.00    -0.297 N 
ATOM     14  H   MET A   6      40.641  10.934  88.738  0.00  0.00    +0.150 HD
BRANCH  11  15
ATOM     15  CA  LEU A   5      39.824  13.176  89.677  0.00  0.00    +0.149 C 
BRANCH  15  18
ATOM     16  C   ILE A   4      39.896  11.757  91.664  0.00  0.00    +0.241 C 
ATOM     17  O   ILE A   4      38.660  11.683  91.670  0.00  0.00    -0.273 OA
ATOM     18  N   LEU A   5      40.531  12.496  90.759  0.00  0.00    -0.297 N 
ATOM     19  H   LEU A   5      41.564  12.593  90.824  0.00  0.00    +0.150 HD
BRANCH  16  20
ATOM     20  CA  ILE A   4      40.714  10.938  92.631  0.00  0.00    +0.149 C 
BRANCH  20  22
ATOM     21  C   ASP A   3      41.828   9.396  91.112  0.00  0.00    +0.241 C 
ATOM     22  N   ILE A   4      41.929  10.419  91.997  0.00  0.00    -0.297 N 
ATOM     23  H   ILE A   4      42.857  10.830  92.223  0.00  0.00    +0.150 HD
ATOM     24  O   ASP A   3      40.745   8.935  90.751  0.00  0.00    -0.273 OA
BRANCH  21  25
ATOM     25  CA  ASP A   3      43.145   8.856  90.575  0.00  0.00    +0.160 C 
BRANCH  25  27
ATOM     26  C   LEU A   2      43.681  10.863  89.304  0.00  0.00    +0.241 C 
ATOM     27  N   ASP A   3      44.030   9.940  90.188  0.00  0.00    -0.297 N 
ATOM     28  H   ASP A   3      44.974   9.994  90.621  0.00  0.00    +0.150 HD
ATOM     29  O   LEU A   2      42.564  10.829  88.762  0.00  0.00    -0.273 OA
BRANCH  26  30
ATOM     30  CA  LEU A   2      44.643  12.015  89.032  0.00  0.00    +0.149 C 
BRANCH  30  33
ATOM     31  C   CYS A   1      44.518  12.996  91.226  0.00  0.00    +0.239 C 
ATOM     32  O   CYS A   1      43.316  13.149  91.080  0.00  0.00    -0.274 OA
ATOM     33  N   LEU A   2      45.271  12.441  90.286  0.00  0.00    -0.297 N 
ATOM     34  H   LEU A   2      46.292  12.310  90.436  0.00  0.00    +0.150 HD
BRANCH  31  35
ATOM     35  CA  CYS A   1      45.171  13.458  92.523  0.00  0.00    +0.156 C 
BRANCH  35  36
ATOM     36  N   CYS A   1      46.196  12.527  92.994  0.00  0.00    -0.237 NA
ATOM     37  H   CYS A   1      47.188  12.824  93.087  0.00  0.00    +0.142 HD
ENDBRANCH  35  36
BRANCH  35  38
ATOM     38  CB  CYS A   1      45.815  14.834  92.299  0.00  0.00    +0.095 C 
ATOM     39  SG  CYS A   1      44.584  16.128  92.247  0.00  0.00    -0.080 S 
ENDBRANCH  35  38
ENDBRANCH  31  35
ENDBRANCH  30  33
BRANCH  30  40
ATOM     40  CB  LEU A   2      45.635  11.670  87.947  0.00  0.00    +0.029 C 
BRANCH  40  41
ATOM     41  CG  LEU A   2      45.063  11.356  86.564  0.00  0.00    +0.002 C 
ATOM     42  CD2 LEU A   2      44.112  12.462  86.090  0.00  0.00    +0.000 C 
ATOM     43  CD1 LEU A   2      46.203  11.116  85.608  0.00  0.00    +0.000 C 
ENDBRANCH  40  41
ENDBRANCH  30  40
ENDBRANCH  26  30
ENDBRANCH  25  27
BRANCH  25  44
ATOM     44  CB  ASP A   3      43.801   7.952  91.634  0.00  0.00    +0.143 C 
BRANCH  44  45
ATOM     45  CG  ASP A   3      45.099   7.368  91.071  0.00  0.00    +0.367 C 
ATOM     46  OD2 ASP A   3      46.088   8.051  90.972  0.00  0.00    -0.246 OA
ATOM     47  OD1 ASP A   3      45.081   6.196  90.641  0.00  0.00    -0.246 OA
ENDBRANCH  44  45
ENDBRANCH  25  44
ENDBRANCH  21  25
ENDBRANCH  20  22
BRANCH  20  48
ATOM     48  CB  ILE A   4      41.107  11.717  93.906  0.00  0.00    +0.027 C 
ATOM     49  CG2 ILE A   4      39.924  12.454  94.494  0.00  0.00    +0.002 C 
BRANCH  48  50
ATOM     50  CG1 ILE A   4      41.781  10.835  94.943  0.00  0.00    +0.002 C 
ATOM     51  CD1 ILE A   4      42.471  11.503  96.080  0.00  0.00    +0.000 C 
ENDBRANCH  48  50
ENDBRANCH  20  48
ENDBRANCH  16  20
ENDBRANCH  15  18
BRANCH  15  52
ATOM     52  CB  LEU A   5      40.788  13.922  88.732  0.00  0.00    +0.029 C 
BRANCH  52  53
ATOM     53  CG  LEU A   5      41.342  15.239  89.297  0.00  0.00    +0.002 C 
ATOM     54  CD2 LEU A   5      40.287  16.337  89.438  0.00  0.00    +0.000 C 
ATOM     55  CD1 LEU A   5      42.485  15.703  88.428  0.00  0.00    +0.000 C 
ENDBRANCH  52  53
ENDBRANCH  15  52
ENDBRANCH  11  15
ENDBRANCH  10  13
BRANCH  10  56
ATOM     56  CB  MET A   6      40.007   9.056  87.081  0.00  0.00    +0.041 C 
BRANCH  56  57
ATOM     57  CG  MET A   6      41.005   9.685  86.120  0.00  0.00    +0.060 C 
BRANCH  57  58
ATOM     58  SD  MET A   6      42.068   8.486  85.363  0.00  0.00    -0.139 S 
ATOM     59  CE  MET A   6      42.328   9.212  83.780  0.00  0.00    +0.069 C 
ENDBRANCH  57  58
ENDBRANCH  56  57
ENDBRANCH  10  56
ENDBRANCH   6  10
ENDBRANCH   5   7
BRANCH   5  60
ATOM     60  CB  LEU A   7      37.486   8.149  91.813  0.00  0.00    +0.029 C 
BRANCH  60  61
ATOM     61  CG  LEU A   7      36.416   7.585  92.772  0.00  0.00    +0.002 C 
ATOM     62  CD2 LEU A   7      37.057   7.332  94.130  0.00  0.00    +0.000 C 
ATOM     63  CD1 LEU A   7      35.784   6.297  92.242  0.00  0.00    +0.000 C 
ENDBRANCH  60  61
ENDBRANCH   5  60
ENDBRANCH   1   5
BRANCH   2  64
ATOM     64  CA  ARG A   8      35.127  11.795  90.904  0.00  0.00    +0.149 C 
BRANCH  64  65
ATOM     65  C   ARG A   8      34.279  11.892  89.649  0.00  0.00    +0.241 C 
ATOM     66  O   ARG A   8      33.038  11.818  89.721  0.00  0.00    -0.273 OA
ATOM     67  N   ILE A   9      34.875  12.050  88.475  0.00  0.00    -0.297 N 
ATOM     68  H   ILE A   9      35.912  12.026  88.406  0.00  0.00    +0.150 HD
BRANCH  67  69
ATOM     69  CA  ILE A   9      34.055  12.260  87.268  0.00  0.00    +0.149 C 
BRANCH  69  70
ATOM     70  C   ILE A   9      33.237  11.012  86.996  0.00  0.00    +0.241 C 
ATOM     71  N   CYS A  10      33.799   9.827  87.276  0.00  0.00    -0.296 N 
ATOM     72  H   CYS A  10      34.745   9.797  87.707  0.00  0.00    +0.150 HD
ATOM     73  O   ILE A   9      32.081  11.085  86.559  0.00  0.00    -0.273 OA
BRANCH  71  74
ATOM     74  CA  CYS A  10      33.104   8.583  86.986  0.00  0.00    +0.160 C 
BRANCH  74  75
ATOM     75  C   CYS A  10      31.924   8.365  87.924  0.00  0.00    +0.242 C 
ATOM     76  N   THR A  11      31.936   8.965  89.113  0.00  0.00    -0.295 N 
ATOM     77  H   THR A  11      32.795   9.462  89.422  0.00  0.00    +0.150 HD
ATOM     78  O   CYS A  10      30.972   7.692  87.562  0.00  0.00    -0.273 OA
BRANCH  76  79
ATOM     79  CA  THR A  11      30.768   8.941  89.994  0.00  0.00    +0.176 C 
BRANCH  79  80
ATOM     80  C   THR A  11      29.651   9.849  89.502  0.00  0.00    +0.243 C 
ATOM     81  O   THR A  11      28.550   9.806  90.055  0.00  0.00    -0.273 OA
ATOM     82  N   ARG A  12      29.905  10.704  88.510  0.00  0.00    -0.298 N 
ATOM     83  H   ARG A  12      30.868  10.718  88.116  0.00  0.00    +0.150 HD
BRANCH  82  84
ATOM     84  CA  ARG A  12      28.932  11.613  87.945  0.00  0.00    +0.137 C 
BRANCH  84  85
ATOM     85  C   ARG A  12      28.444  11.154  86.570  0.00  0.00    +0.227 C 
ATOM     86  O   ARG A  12      28.028  11.958  85.754  0.00  0.00    -0.286 OA
ENDBRANCH  84  85
BRANCH  84  87
ATOM     87  CB  ARG A  12      29.508  13.038  87.828  0.00  0.00    +0.031 C 
BRANCH  87  88
ATOM     88  CG  ARG A  12      29.882  13.663  89.154  0.00  0.00    +0.045 C 
BRANCH  88  89
ATOM     89  CD  ARG A  12      28.918  14.804  89.452  0.00  0.00    +0.174 C 
BRANCH  89  90
ATOM     90  NE  ARG A  12      29.354  15.641  90.568  0.00  0.00    -0.265 N 
ATOM     91  HE  ARG A  12      28.882  15.507  91.485  0.00  0.00    +0.259 HD
ATOM     92  CZ  ARG A  12      30.287  16.538  90.496  0.00  0.00    +0.342 C 
ATOM     93  NH2 ARG A  12      30.646  17.254  91.526  0.00  0.00    -0.292 N 
ATOM     94 HH21 ARG A  12      30.179  17.114  92.445  0.00  0.00    +0.255 HD
ATOM     95 HH22 ARG A  12      31.399  17.964  91.428  0.00  0.00    +0.255 HD
ATOM     96  NH1 ARG A  12      30.941  16.721  89.354  0.00  0.00    -0.292 N 
ATOM     97 HH11 ARG A  12      31.690  17.440  89.293  0.00  0.00    +0.255 HD
ATOM     98 HH12 ARG A  12      30.704  16.145  88.521  0.00  0.00    +0.255 HD
ENDBRANCH  89  90
ENDBRANCH  88  89
ENDBRANCH  87  88
ENDBRANCH  84  87
ENDBRANCH  82  84
ENDBRANCH  79  80
BRANCH  79  99
ATOM     99  CB  THR A  11      31.079   9.354  91.426  0.00  0.00    +0.137 C 
ATOM    100  CG2 THR A  11      32.246   8.572  91.959  0.00  0.00    +0.034 C 
BRANCH  99 101
ATOM    101  OG1 THR A  11      31.376  10.715  91.579  0.00  0.00    -0.382 OA
ATOM    102  HG1 THR A  11      32.169  10.942  91.032  0.00  0.00    +0.210 HD
ENDBRANCH  99 101
ENDBRANCH  79  99
ENDBRANCH  76  79
ENDBRANCH  74  75
BRANCH  74 103
ATOM    103  CB  CYS A  10      34.066   7.412  87.019  0.00  0.00    +0.098 C 
ATOM    104  SG  CYS A  10      35.171   7.345  85.623  0.00  0.00    -0.080 S 
ENDBRANCH  74 103
ENDBRANCH  71  74
ENDBRANCH  69  70
BRANCH  69 105
ATOM    105  CB  ILE A   9      34.879  12.766  86.082  0.00  0.00    +0.027 C 
ATOM    106  CG2 ILE A   9      35.760  11.692  85.474  0.00  0.00    +0.002 C 
BRANCH 105 107
ATOM    107  CG1 ILE A   9      33.970  13.370  85.002  0.00  0.00    +0.002 C 
ATOM    108  CD1 ILE A   9      33.075  14.523  85.421  0.00  0.00    +0.000 C 
ENDBRANCH 105 107
ENDBRANCH  69 105
ENDBRANCH  67  69
ENDBRANCH  64  65
BRANCH  64 109
ATOM    109  CB  ARG A   8      35.787  13.105  91.310  0.00  0.00    +0.033 C 
BRANCH 109 110
ATOM    110  CG  ARG A   8      36.115  13.246  92.804  0.00  0.00    +0.045 C 
BRANCH 110 111
ATOM    111  CD  ARG A   8      36.804  14.527  93.183  0.00  0.00    +0.174 C 
BRANCH 111 112
ATOM    112  NE  ARG A   8      36.761  14.692  94.635  0.00  0.00    -0.265 N 
ATOM    113  CZ  ARG A   8      36.639  15.827  95.323  0.00  0.00    +0.342 C 
ATOM    114  NH2 ARG A   8      36.579  15.825  96.676  0.00  0.00    -0.292 N 
ATOM    115 HH21 ARG A   8      36.628  14.926  97.197  0.00  0.00    +0.255 HD
ATOM    116 HH22 ARG A   8      36.484  16.722  97.194  0.00  0.00    +0.255 HD
ATOM    117  NH1 ARG A   8      36.630  17.025  94.769  0.00  0.00    -0.292 N 
ATOM    118 HH11 ARG A   8      36.531  17.872  95.364  0.00  0.00    +0.255 HD
ATOM    119 HH12 ARG A   8      36.722  17.122  93.738  0.00  0.00    +0.255 HD
ATOM    120  HE  ARG A   8      36.834  13.820  95.198  0.00  0.00    +0.259 HD
ENDBRANCH 111 112
ENDBRANCH 110 111
ENDBRANCH 109 110
ENDBRANCH  64 109
ENDBRANCH   2  64
TORSDOF 51
REMARK  Name = ../refined-set-2016/1fcz/1fcz_pocket.pdb
REMARK  259 active torsions:
REMARK  status: ('A' for Active; 'I' for Inactive)
REMARK    1  A    between atoms: _1  and  _3
REMARK    2  A    between atoms: _3  and  _4
REMARK    3  A    between atoms: _3  and  _6
REMARK    4  A    between atoms: _6  and  _7
REMARK    5  A    between atoms: _10  and  _12
REMARK    6  A    between atoms: _12  and  _13
REMARK    7  A    between atoms: _12  and  _15
REMARK    8  A    between atoms: _15  and  _16
REMARK    9  A    between atoms: _23  and  _24
REMARK   10  A    between atoms: _29  and  _31
REMARK   11  A    between atoms: _31  and  _32
REMARK   12  A    between atoms: _31  and  _34
REMARK   13  A    between atoms: _34  and  _35
REMARK   14  A    between atoms: _38  and  _40
REMARK   15  A    between atoms: _40  and  _41
REMARK   16  A    between atoms: _40  and  _43
REMARK   17  A    between atoms: _43  and  _44
REMARK   18  A    between atoms: _54  and  _56
REMARK   19  A    between atoms: _56  and  _57
REMARK   20  A    between atoms: _56  and  _59
REMARK   21  A    between atoms: _59  and  _60
REMARK   22  A    between atoms: _60  and  _61
REMARK   23  A    between atoms: _61  and  _62
REMARK   24  A    between atoms: _62  and  _63
REMARK   25  A    between atoms: _67  and  _69
REMARK   26  A    between atoms: _69  and  _70
REMARK   27  A    between atoms: _69  and  _72
REMARK   28  A    between atoms: _72  and  _73
REMARK   29  A    between atoms: _79  and  _81
REMARK   30  A    between atoms: _81  and  _82
REMARK   31  A    between atoms: _81  and  _84
REMARK   32  A    between atoms: _84  and  _85
REMARK   33  A    between atoms: _87  and  _89
REMARK   34  A    between atoms: _89  and  _90
REMARK   35  A    between atoms: _89  and  _92
REMARK   36  A    between atoms: _92  and  _93
REMARK   37  A    between atoms: _93  and  _94
REMARK   38  A    between atoms: _97  and  _99
REMARK   39  A    between atoms: _99  and  _100
REMARK   40  A    between atoms: _99  and  _102
REMARK   41  A    between atoms: _102  and  _103
REMARK   42  A    between atoms: _106  and  _108
REMARK   43  A    between atoms: _108  and  _109
REMARK   44  A    between atoms: _112  and  _114
REMARK   45  A    between atoms: _114  and  _115
REMARK   46  A    between atoms: _114  and  _117
REMARK   47  A    between atoms: _117  and  _118
REMARK   48  A    between atoms: _121  and  _123
REMARK   49  A    between atoms: _123  and  _124
REMARK   50  A    between atoms: _123  and  _126
REMARK   51  A    between atoms: _126  and  _127
REMARK   52  A    between atoms: _127  and  _128
REMARK   53  A    between atoms: _128  and  _129
REMARK   54  A    between atoms: _129  and  _130
REMARK   55  A    between atoms: _134  and  _136
REMARK   56  A    between atoms: _136  and  _137
REMARK   57  A    between atoms: _136  and  _139
REMARK   58  A    between atoms: _141  and  _143
REMARK   59  A    between atoms: _143  and  _144
REMARK   60  A    between atoms: _143  and  _146
REMARK   61  A    between atoms: _146  and  _147
REMARK   62  A    between atoms: _150  and  _152
REMARK   63  A    between atoms: _152  and  _153
REMARK   64  A    between atoms: _152  and  _155
REMARK   65  A    between atoms: _155  and  _156
REMARK   66  A    between atoms: _156  and  _157
REMARK   67  A    between atoms: _157  and  _158
REMARK   68  A    between atoms: _158  and  _159
REMARK   69  A    between atoms: _163  and  _165
REMARK   70  A    between atoms: _165  and  _166
REMARK   71  A    between atoms: _165  and  _168
REMARK   72  A    between atoms: _168  and  _169
REMARK   73  A    between atoms: _172  and  _174
REMARK   74  A    between atoms: _174  and  _175
REMARK   75  A    between atoms: _174  and  _177
REMARK   76  A    between atoms: _179  and  _181
REMARK   77  A    between atoms: _181  and  _182
REMARK   78  A    between atoms: _181  and  _184
REMARK   79  A    between atoms: _184  and  _185
REMARK   80  A    between atoms: _188  and  _190
REMARK   81  A    between atoms: _190  and  _191
REMARK   82  A    between atoms: _190  and  _193
REMARK   83  A    between atoms: _193  and  _194
REMARK   84  A    between atoms: _197  and  _199
REMARK   85  A    between atoms: _199  and  _200
REMARK   86  A    between atoms: _199  and  _202
REMARK   87  A    between atoms: _202  and  _203
REMARK   88  A    between atoms: _206  and  _208
REMARK   89  A    between atoms: _208  and  _209
REMARK   90  A    between atoms: _208  and  _211
REMARK   91  A    between atoms: _211  and  _212
REMARK   92  A    between atoms: _215  and  _217
REMARK   93  A    between atoms: _217  and  _218
REMARK   94  A    between atoms: _217  and  _220
REMARK   95  A    between atoms: _220  and  _221
REMARK   96  A    between atoms: _221  and  _222
REMARK   97  A    between atoms: _224  and  _226
REMARK   98  A    between atoms: _226  and  _227
REMARK   99  A    between atoms: _226  and  _229
REMARK  100  A    between atoms: _229  and  _230
REMARK  101  A    between atoms: _233  and  _235
REMARK  102  A    between atoms: _235  and  _236
REMARK  103  A    between atoms: _235  and  _238
REMARK  104  A    between atoms: _238  and  _239
REMARK  105  A    between atoms: _239  and  _240
REMARK  106  A    between atoms: _240  and  _241
REMARK  107  A    between atoms: _250  and  _252
REMARK  108  A    between atoms: _252  and  _253
REMARK  109  A    between atoms: _252  and  _255
REMARK  110  A    between atoms: _255  and  _256
REMARK  111  A    between atoms: _259  and  _261
REMARK  112  A    between atoms: _261  and  _262
REMARK  113  A    between atoms: _261  and  _264
REMARK  114  A    between atoms: _266  and  _268
REMARK  115  A    between atoms: _268  and  _269
REMARK  116  A    between atoms: _268  and  _271
REMARK  117  A    between atoms: _271  and  _272
REMARK  118  A    between atoms: _275  and  _277
REMARK  119  A    between atoms: _277  and  _278
REMARK  120  A    between atoms: _277  and  _280
REMARK  121  A    between atoms: _280  and  _281
REMARK  122  A    between atoms: _281  and  _282
REMARK  123  A    between atoms: _282  and  _283
REMARK  124  A    between atoms: _292  and  _294
REMARK  125  A    between atoms: _294  and  _295
REMARK  126  A    between atoms: _294  and  _297
REMARK  127  A    between atoms: _297  and  _298
REMARK  128  A    between atoms: _298  and  _299
REMARK  129  A    between atoms: _301  and  _303
REMARK  130  A    between atoms: _303  and  _304
REMARK  131  A    between atoms: _303  and  _306
REMARK  132  A    between atoms: _306  and  _307
REMARK  133  A    between atoms: _310  and  _312
REMARK  134  A    between atoms: _312  and  _313
REMARK  135  A    between atoms: _312  and  _315
REMARK  136  A    between atoms: _315  and  _316
REMARK  137  A    between atoms: _322  and  _324
REMARK  138  A    between atoms: _324  and  _325
REMARK  139  A    between atoms: _324  and  _327
REMARK  140  A    between atoms: _327  and  _328
REMARK  141  A    between atoms: _330  and  _332
REMARK  142  A    between atoms: _332  and  _333
REMARK  143  A    between atoms: _332  and  _335
REMARK  144  A    between atoms: _335  and  _336
REMARK  145  A    between atoms: _339  and  _341
REMARK  146  A    between atoms: _341  and  _342
REMARK  147  A    between atoms: _344  and  _346
REMARK  148  A    between atoms: _346  and  _347
REMARK  149  A    between atoms: _346  and  _349
REMARK  150  A    between atoms: _349  and  _350
REMARK  151  A    between atoms: _353  and  _355
REMARK  152  A    between atoms: _355  and  _356
REMARK  153  A    between atoms: _355  and  _358
REMARK  154  A    between atoms: _358  and  _359
REMARK  155  A    between atoms: _359  and  _360
REMARK  156  A    between atoms: _362  and  _364
REMARK  157  A    between atoms: _364  and  _365
REMARK  158  A    between atoms: _364  and  _367
REMARK  159  A    between atoms: _367  and  _368
REMARK  160  A    between atoms: _373  and  _375
REMARK  161  A    between atoms: _375  and  _376
REMARK  162  A    between atoms: _379  and  _381
REMARK  163  A    between atoms: _381  and  _382
REMARK  164  A    between atoms: _384  and  _386
REMARK  165  A    between atoms: _386  and  _387
REMARK  166  A    between atoms: _386  and  _389
REMARK  167  A    between atoms: _389  and  _390
REMARK  168  A    between atoms: _396  and  _398
REMARK  169  A    between atoms: _398  and  _399
REMARK  170  A    between atoms: _401  and  _403
REMARK  171  A    between atoms: _403  and  _404
REMARK  172  A    between atoms: _403  and  _406
REMARK  173  A    between atoms: _406  and  _407
REMARK  174  A    between atoms: _410  and  _412
REMARK  175  A    between atoms: _412  and  _413
REMARK  176  A    between atoms: _412  and  _415
REMARK  177  A    between atoms: _415  and  _416
REMARK  178  A    between atoms: _419  and  _421
REMARK  179  A    between atoms: _421  and  _422
REMARK  180  A    between atoms: _421  and  _424
REMARK  181  A    between atoms: _427  and  _429
REMARK  182  A    between atoms: _429  and  _430
REMARK  183  A    between atoms: _429  and  _432
REMARK  184  A    between atoms: _432  and  _433
REMARK  185  A    between atoms: _436  and  _438
REMARK  186  A    between atoms: _438  and  _439
REMARK  187  A    between atoms: _438  and  _441
REMARK  188  A    between atoms: _441  and  _442
REMARK  189  A    between atoms: _445  and  _447
REMARK  190  A    between atoms: _447  and  _448
REMARK  191  A    between atoms: _447  and  _450
REMARK  192  A    between atoms: _450  and  _451
REMARK  193  A    between atoms: _453  and  _455
REMARK  194  A    between atoms: _455  and  _456
REMARK  195  A    between atoms: _455  and  _458
REMARK  196  A    between atoms: _458  and  _459
REMARK  197  A    between atoms: _459  and  _460
REMARK  198  A    between atoms: _460  and  _461
REMARK  199  A    between atoms: _461  and  _462
REMARK  200  A    between atoms: _466  and  _468
REMARK  201  A    between atoms: _468  and  _469
REMARK  202  A    between atoms: _471  and  _473
REMARK  203  A    between atoms: _473  and  _474
REMARK  204  A    between atoms: _477  and  _479
REMARK  205  A    between atoms: _479  and  _480
REMARK  206  A    between atoms: _479  and  _482
REMARK  207  A    between atoms: _483  and  _484
REMARK  208  A    between atoms: _487  and  _489
REMARK  209  A    between atoms: _489  and  _490
REMARK  210  A    between atoms: _489  and  _492
REMARK  211  A    between atoms: _492  and  _493
REMARK  212  A    between atoms: _493  and  _494
REMARK  213  A    between atoms: _494  and  _495
REMARK  214  A    between atoms: _504  and  _506
REMARK  215  A    between atoms: _506  and  _507
REMARK  216  A    between atoms: _510  and  _512
REMARK  217  A    between atoms: _512  and  _513
REMARK  218  A    between atoms: _512  and  _515
REMARK  219  A    between atoms: _515  and  _516
REMARK  220  A    between atoms: _519  and  _521
REMARK  221  A    between atoms: _521  and  _522
REMARK  222  A    between atoms: _521  and  _524
REMARK  223  A    between atoms: _524  and  _525
REMARK  224  A    between atoms: _528  and  _530
REMARK  225  A    between atoms: _530  and  _531
REMARK  226  A    between atoms: _530  and  _533
REMARK  227  A    between atoms: _533  and  _534
REMARK  228  A    between atoms: _537  and  _539
REMARK  229  A    between atoms: _539  and  _540
REMARK  230  A    between atoms: _539  and  _542
REMARK  231  A    between atoms: _542  and  _543
REMARK  232  A    between atoms: _543  and  _544
REMARK  233  A    between atoms: _544  and  _545
REMARK  234  A    between atoms: _545  and  _546
REMARK  235  A    between atoms: _550  and  _552
REMARK  236  A    between atoms: _552  and  _553
REMARK  237  A    between atoms: _552  and  _555
REMARK  238  A    between atoms: _555  and  _556
REMARK  239  A    between atoms: _556  and  _557
REMARK  240  A    between atoms: _560  and  _561
REMARK  241  A    between atoms: _566  and  _568
REMARK  242  A    between atoms: _568  and  _569
REMARK  243  A    between atoms: _568  and  _571
REMARK  244  A    between atoms: _571  and  _572
REMARK  245  A    between atoms: _575  and  _577
REMARK  246  A    between atoms: _577  and  _578
REMARK  247  A    between atoms: _577  and  _580
REMARK  248  A    between atoms: _580  and  _581
REMARK  249  A    between atoms: _581  and  _582
REMARK  250  A    between atoms: _582  and  _583
REMARK  251  A    between atoms: _592  and  _594
REMARK  252  A    between atoms: _594  and  _595
REMARK  253  A    between atoms: _594  and  _597
REMARK  254  A    between atoms: _597  and  _598
REMARK  255  A    between atoms: _598  and  _599
REMARK  256  A    between atoms: _601  and  _603
REMARK  257  A    between atoms: _603  and  _604
REMARK  258  A    between atoms: _603  and  _606
REMARK  259  A    between atoms: _606  and  _607
REMARK                            x       y       z     vdW  Elec       q    Type
REMARK                         _______ _______ _______ _____ _____    ______ ____
ROOT
ATOM      1  C   PHE A   3      30.701  19.155  87.250  0.00  0.00    +0.241 C 
ATOM      2  N   SER A   4      31.582  19.733  88.082  0.00  0.00    -0.295 N 
ATOM      3  H   SER A   4      32.591  19.761  87.832  0.00  0.00    +0.150 HD
ATOM      4  O   PHE A   3      29.496  19.271  87.371  0.00  0.00    -0.273 OA
ENDROOT
BRANCH   2   5
ATOM      5  CA  SER A   4      31.130  20.318  89.327  0.00  0.00    +0.178 C 
BRANCH   5   6
ATOM      6  C   SER A   4      30.364  21.632  89.153  0.00  0.00    +0.243 C 
ATOM      7  O   SER A   4      29.796  22.100  90.122  0.00  0.00    -0.273 OA
ATOM      8  N   ASP A   5      30.389  22.209  87.950  0.00  0.00    -0.296 N 
ATOM      9  H   ASP A   5      30.988  21.811  87.199  0.00  0.00    +0.150 HD
BRANCH   8  10
ATOM     10  CA  ASP A   5      29.587  23.387  87.681  0.00  0.00    +0.160 C 
BRANCH  10  11
ATOM     11  C   ASP A   5      28.269  23.010  87.004  0.00  0.00    +0.241 C 
ATOM     12  N   GLY A   6      28.000  21.724  86.827  0.00  0.00    -0.295 N 
ATOM     13  H   GLY A   6      28.649  21.033  87.254  0.00  0.00    +0.150 HD
ATOM     14  O   ASP A   5      27.558  23.915  86.551  0.00  0.00    -0.273 OA
BRANCH  12  15
ATOM     15  CA  GLY A   6      26.878  21.216  86.088  0.00  0.00    +0.176 C 
BRANCH  15  16
ATOM     16  C   GLY A   6      27.111  20.887  84.637  0.00  0.00    +0.243 C 
ATOM     17  N   LEU A   7      28.273  21.234  84.066  0.00  0.00    -0.298 N 
ATOM     18  H   LEU A   7      29.006  21.714  84.626  0.00  0.00    +0.150 HD
ATOM     19  O   GLY A   6      26.230  20.278  84.006  0.00  0.00    -0.273 OA
BRANCH  17  20
ATOM     20  CA  LEU A   7      28.507  20.935  82.652  0.00  0.00    +0.137 C 
BRANCH  20  21
ATOM     21  C   LEU A   7      28.387  19.446  82.433  0.00  0.00    +0.227 C 
ATOM     22  O   LEU A   7      29.026  18.647  83.091  0.00  0.00    -0.286 OA
ENDBRANCH  20  21
BRANCH  20  23
ATOM     23  CB  LEU A   7      29.913  21.397  82.206  0.00  0.00    +0.028 C 
BRANCH  23  24
ATOM     24  CG  LEU A   7      30.266  21.044  80.781  0.00  0.00    +0.002 C 
ATOM     25  CD2 LEU A   7      31.736  21.353  80.550  0.00  0.00    +0.000 C 
ATOM     26  CD1 LEU A   7      29.380  21.744  79.753  0.00  0.00    +0.000 C 
ENDBRANCH  23  24
ENDBRANCH  20  23
ENDBRANCH  17  20
ENDBRANCH  15  16
ENDBRANCH  12  15
ENDBRANCH  10  11
BRANCH  10  27
ATOM     27  CB  ASP A   5      30.329  24.381  86.796  0.00  0.00    +0.143 C 
BRANCH  27  28
ATOM     28  CG  ASP A   5      30.550  23.923  85.364  0.00  0.00    +0.367 C 
ATOM     29  OD2 ASP A   5      30.520  22.702  85.130  0.00  0.00    -0.246 OA
ATOM     30  OD1 ASP A   5      30.757  24.776  84.483  0.00  0.00    -0.246 OA
ENDBRANCH  27  28
ENDBRANCH  10  27
ENDBRANCH   8  10
ENDBRANCH   5   6
BRANCH   5  31
ATOM     31  CB  SER A   4      32.315  20.457  90.304  0.00  0.00    +0.166 C 
BRANCH  31  32
ATOM     32  OG  SER A   4      32.730  19.208  90.799  0.00  0.00    -0.380 OA
ATOM     33  H   SER A   4      33.013  18.633  90.045  0.00  0.00    +0.211 HD
ENDBRANCH  31  32
ENDBRANCH   5  31
ENDBRANCH   2   5
BRANCH   1  34
ATOM     34  CA  PHE A   3      31.337  18.328  86.142  0.00  0.00    +0.153 C 
BRANCH  34  37
ATOM     35  C   THR A   2      29.775  16.436  85.719  0.00  0.00    +0.243 C 
ATOM     36  O   THR A   2      30.148  15.772  86.679  0.00  0.00    -0.273 OA
ATOM     37  N   PHE A   3      30.291  17.625  85.394  0.00  0.00    -0.297 N 
ATOM     38  H   PHE A   3      29.920  18.089  84.541  0.00  0.00    +0.150 HD
BRANCH  35  39
ATOM     39  CA  THR A   2      28.692  15.885  84.791  0.00  0.00    +0.176 C 
BRANCH  39  41
ATOM     40  C   MET A   1      29.170  14.222  83.040  0.00  0.00    +0.238 C 
ATOM     41  N   THR A   2      29.020  14.536  84.326  0.00  0.00    -0.295 N 
ATOM     42  H   THR A   2      29.142  13.785  85.035  0.00  0.00    +0.150 HD
ATOM     43  O   MET A   1      29.133  15.050  82.139  0.00  0.00    -0.274 OA
BRANCH  40  44
ATOM     44  CA  MET A   1      29.361  12.734  82.744  0.00  0.00    +0.146 C 
BRANCH  44  45
ATOM     45  N   MET A   1      28.763  12.420  81.455  0.00  0.00    -0.238 NA
ATOM     46  H   MET A   1      29.070  12.945  80.611  0.00  0.00    +0.142 HD
ENDBRANCH  44  45
BRANCH  44  47
ATOM     47  CB  MET A   1      30.831  12.316  82.771  0.00  0.00    +0.038 C 
BRANCH  47  48
ATOM     48  CG  MET A   1      31.008  10.766  82.732  0.00  0.00    +0.060 C 
BRANCH  48  49
ATOM     49  SD  MET A   1      32.693  10.240  82.896  0.00  0.00    -0.139 S 
ATOM     50  CE  MET A   1      32.469   8.527  82.557  0.00  0.00    +0.069 C 
ENDBRANCH  48  49
ENDBRANCH  47  48
ENDBRANCH  44  47
ENDBRANCH  40  44
ENDBRANCH  39  41
BRANCH  39  51
ATOM     51  CB  THR A   2      27.334  15.884  85.496  0.00  0.00    +0.137 C 
ATOM     52  CG2 THR A   2      27.007  17.270  86.056  0.00  0.00    +0.034 C 
BRANCH  51  53
ATOM     53  OG1 THR A   2      26.316  15.513  84.551  0.00  0.00    -0.382 OA
ATOM     54  HG1 THR A   2      26.510  14.609  84.197  0.00  0.00    +0.210 HD
ENDBRANCH  51  53
ENDBRANCH  39  51
ENDBRANCH  35  39
ENDBRANCH  34  37
BRANCH  34  55
ATOM     55  CB  PHE A   3      32.179  19.181  85.170  0.00  0.00    +0.055 C 
BRANCH  55  56
ATOM     56  CG  PHE A   3      32.869  18.323  84.128  0.00  0.00    -0.020 A 
ATOM     57  CD2 PHE A   3      34.157  17.909  84.443  0.00  0.00    -0.004 A 
ATOM     58  CE2 PHE A   3      34.840  17.085  83.569  0.00  0.00    -0.000 A 
ATOM     59  CZ  PHE A   3      34.270  16.692  82.375  0.00  0.00    -0.000 A 
ATOM     60  CE1 PHE A   3      32.976  17.086  82.077  0.00  0.00    -0.000 A 
ATOM     61  CD1 PHE A   3      32.287  17.934  82.934  0.00  0.00    -0.004 A 
ENDBRANCH  55  56
ENDBRANCH  34  55
ENDBRANCH   1  34
TORSDOF 27
REMARK  Name = ../refined-set-2016/1fcz/1fcz_pocket.pdb
REMARK  259 active torsions:
REMARK  status: ('A' for Active; 'I' for Inactive)
REMARK    1  A    between atoms: _1  and  _3
REMARK    2  A    between atoms: _3  and  _4
REMARK    3  A    between atoms: _3  and  _6
REMARK    4  A    between atoms: _6  and  _7
REMARK    5  A    between atoms: _10  and  _12
REMARK    6  A    between atoms: _12  and  _13
REMARK    7  A    between atoms: _12  and  _15
REMARK    8  A    between atoms: _15  and  _16
REMARK    9  A    between atoms: _23  and  _24
REMARK   10  A    between atoms: _29  and  _31
REMARK   11  A    between atoms: _31  and  _32
REMARK   12  A    between atoms: _31  and  _34
REMARK   13  A    between atoms: _34  and  _35
REMARK   14  A    between atoms: _38  and  _40
REMARK   15  A    between atoms: _40  and  _41
REMARK   16  A    between atoms: _40  and  _43
REMARK   17  A    between atoms: _43  and  _44
REMARK   18  A    between atoms: _54  and  _56
REMARK   19  A    between atoms: _56  and  _57
REMARK   20  A    between atoms: _56  and  _59
REMARK   21  A    between atoms: _59  and  _60
REMARK   22  A    between atoms: _60  and  _61
REMARK   23  A    between atoms: _61  and  _62
REMARK   24  A    between atoms: _62  and  _63
REMARK   25  A    between atoms: _67  and  _69
REMARK   26  A    between atoms: _69  and  _70
REMARK   27  A    between atoms: _69  and  _72
REMARK   28  A    between atoms: _72  and  _73
REMARK   29  A    between atoms: _79  and  _81
REMARK   30  A    between atoms: _81  and  _82
REMARK   31  A    between atoms: _81  and  _84
REMARK   32  A    between atoms: _84  and  _85
REMARK   33  A    between atoms: _87  and  _89
REMARK   34  A    between atoms: _89  and  _90
REMARK   35  A    between atoms: _89  and  _92
REMARK   36  A    between atoms: _92  and  _93
REMARK   37  A    between atoms: _93  and  _94
REMARK   38  A    between atoms: _97  and  _99
REMARK   39  A    between atoms: _99  and  _100
REMARK   40  A    between atoms: _99  and  _102
REMARK   41  A    between atoms: _102  and  _103
REMARK   42  A    between atoms: _106  and  _108
REMARK   43  A    between atoms: _108  and  _109
REMARK   44  A    between atoms: _112  and  _114
REMARK   45  A    between atoms: _114  and  _115
REMARK   46  A    between atoms: _114  and  _117
REMARK   47  A    between atoms: _117  and  _118
REMARK   48  A    between atoms: _121  and  _123
REMARK   49  A    between atoms: _123  and  _124
REMARK   50  A    between atoms: _123  and  _126
REMARK   51  A    between atoms: _126  and  _127
REMARK   52  A    between atoms: _127  and  _128
REMARK   53  A    between atoms: _128  and  _129
REMARK   54  A    between atoms: _129  and  _130
REMARK   55  A    between atoms: _134  and  _136
REMARK   56  A    between atoms: _136  and  _137
REMARK   57  A    between atoms: _136  and  _139
REMARK   58  A    between atoms: _141  and  _143
REMARK   59  A    between atoms: _143  and  _144
REMARK   60  A    between atoms: _143  and  _146
REMARK   61  A    between atoms: _146  and  _147
REMARK   62  A    between atoms: _150  and  _152
REMARK   63  A    between atoms: _152  and  _153
REMARK   64  A    between atoms: _152  and  _155
REMARK   65  A    between atoms: _155  and  _156
REMARK   66  A    between atoms: _156  and  _157
REMARK   67  A    between atoms: _157  and  _158
REMARK   68  A    between atoms: _158  and  _159
REMARK   69  A    between atoms: _163  and  _165
REMARK   70  A    between atoms: _165  and  _166
REMARK   71  A    between atoms: _165  and  _168
REMARK   72  A    between atoms: _168  and  _169
REMARK   73  A    between atoms: _172  and  _174
REMARK   74  A    between atoms: _174  and  _175
REMARK   75  A    between atoms: _174  and  _177
REMARK   76  A    between atoms: _179  and  _181
REMARK   77  A    between atoms: _181  and  _182
REMARK   78  A    between atoms: _181  and  _184
REMARK   79  A    between atoms: _184  and  _185
REMARK   80  A    between atoms: _188  and  _190
REMARK   81  A    between atoms: _190  and  _191
REMARK   82  A    between atoms: _190  and  _193
REMARK   83  A    between atoms: _193  and  _194
REMARK   84  A    between atoms: _197  and  _199
REMARK   85  A    between atoms: _199  and  _200
REMARK   86  A    between atoms: _199  and  _202
REMARK   87  A    between atoms: _202  and  _203
REMARK   88  A    between atoms: _206  and  _208
REMARK   89  A    between atoms: _208  and  _209
REMARK   90  A    between atoms: _208  and  _211
REMARK   91  A    between atoms: _211  and  _212
REMARK   92  A    between atoms: _215  and  _217
REMARK   93  A    between atoms: _217  and  _218
REMARK   94  A    between atoms: _217  and  _220
REMARK   95  A    between atoms: _220  and  _221
REMARK   96  A    between atoms: _221  and  _222
REMARK   97  A    between atoms: _224  and  _226
REMARK   98  A    between atoms: _226  and  _227
REMARK   99  A    between atoms: _226  and  _229
REMARK  100  A    between atoms: _229  and  _230
REMARK  101  A    between atoms: _233  and  _235
REMARK  102  A    between atoms: _235  and  _236
REMARK  103  A    between atoms: _235  and  _238
REMARK  104  A    between atoms: _238  and  _239
REMARK  105  A    between atoms: _239  and  _240
REMARK  106  A    between atoms: _240  and  _241
REMARK  107  A    between atoms: _250  and  _252
REMARK  108  A    between atoms: _252  and  _253
REMARK  109  A    between atoms: _252  and  _255
REMARK  110  A    between atoms: _255  and  _256
REMARK  111  A    between atoms: _259  and  _261
REMARK  112  A    between atoms: _261  and  _262
REMARK  113  A    between atoms: _261  and  _264
REMARK  114  A    between atoms: _266  and  _268
REMARK  115  A    between atoms: _268  and  _269
REMARK  116  A    between atoms: _268  and  _271
REMARK  117  A    between atoms: _271  and  _272
REMARK  118  A    between atoms: _275  and  _277
REMARK  119  A    between atoms: _277  and  _278
REMARK  120  A    between atoms: _277  and  _280
REMARK  121  A    between atoms: _280  and  _281
REMARK  122  A    between atoms: _281  and  _282
REMARK  123  A    between atoms: _282  and  _283
REMARK  124  A    between atoms: _292  and  _294
REMARK  125  A    between atoms: _294  and  _295
REMARK  126  A    between atoms: _294  and  _297
REMARK  127  A    between atoms: _297  and  _298
REMARK  128  A    between atoms: _298  and  _299
REMARK  129  A    between atoms: _301  and  _303
REMARK  130  A    between atoms: _303  and  _304
REMARK  131  A    between atoms: _303  and  _306
REMARK  132  A    between atoms: _306  and  _307
REMARK  133  A    between atoms: _310  and  _312
REMARK  134  A    between atoms: _312  and  _313
REMARK  135  A    between atoms: _312  and  _315
REMARK  136  A    between atoms: _315  and  _316
REMARK  137  A    between atoms: _322  and  _324
REMARK  138  A    between atoms: _324  and  _325
REMARK  139  A    between atoms: _324  and  _327
REMARK  140  A    between atoms: _327  and  _328
REMARK  141  A    between atoms: _330  and  _332
REMARK  142  A    between atoms: _332  and  _333
REMARK  143  A    between atoms: _332  and  _335
REMARK  144  A    between atoms: _335  and  _336
REMARK  145  A    between atoms: _339  and  _341
REMARK  146  A    between atoms: _341  and  _342
REMARK  147  A    between atoms: _344  and  _346
REMARK  148  A    between atoms: _346  and  _347
REMARK  149  A    between atoms: _346  and  _349
REMARK  150  A    between atoms: _349  and  _350
REMARK  151  A    between atoms: _353  and  _355
REMARK  152  A    between atoms: _355  and  _356
REMARK  153  A    between atoms: _355  and  _358
REMARK  154  A    between atoms: _358  and  _359
REMARK  155  A    between atoms: _359  and  _360
REMARK  156  A    between atoms: _362  and  _364
REMARK  157  A    between atoms: _364  and  _365
REMARK  158  A    between atoms: _364  and  _367
REMARK  159  A    between atoms: _367  and  _368
REMARK  160  A    between atoms: _373  and  _375
REMARK  161  A    between atoms: _375  and  _376
REMARK  162  A    between atoms: _379  and  _381
REMARK  163  A    between atoms: _381  and  _382
REMARK  164  A    between atoms: _384  and  _386
REMARK  165  A    between atoms: _386  and  _387
REMARK  166  A    between atoms: _386  and  _389
REMARK  167  A    between atoms: _389  and  _390
REMARK  168  A    between atoms: _396  and  _398
REMARK  169  A    between atoms: _398  and  _399
REMARK  170  A    between atoms: _401  and  _403
REMARK  171  A    between atoms: _403  and  _404
REMARK  172  A    between atoms: _403  and  _406
REMARK  173  A    between atoms: _406  and  _407
REMARK  174  A    between atoms: _410  and  _412
REMARK  175  A    between atoms: _412  and  _413
REMARK  176  A    between atoms: _412  and  _415
REMARK  177  A    between atoms: _415  and  _416
REMARK  178  A    between atoms: _419  and  _421
REMARK  179  A    between atoms: _421  and  _422
REMARK  180  A    between atoms: _421  and  _424
REMARK  181  A    between atoms: _427  and  _429
REMARK  182  A    between atoms: _429  and  _430
REMARK  183  A    between atoms: _429  and  _432
REMARK  184  A    between atoms: _432  and  _433
REMARK  185  A    between atoms: _436  and  _438
REMARK  186  A    between atoms: _438  and  _439
REMARK  187  A    between atoms: _438  and  _441
REMARK  188  A    between atoms: _441  and  _442
REMARK  189  A    between atoms: _445  and  _447
REMARK  190  A    between atoms: _447  and  _448
REMARK  191  A    between atoms: _447  and  _450
REMARK  192  A    between atoms: _450  and  _451
REMARK  193  A    between atoms: _453  and  _455
REMARK  194  A    between atoms: _455  and  _456
REMARK  195  A    between atoms: _455  and  _458
REMARK  196  A    between atoms: _458  and  _459
REMARK  197  A    between atoms: _459  and  _460
REMARK  198  A    between atoms: _460  and  _461
REMARK  199  A    between atoms: _461  and  _462
REMARK  200  A    between atoms: _466  and  _468
REMARK  201  A    between atoms: _468  and  _469
REMARK  202  A    between atoms: _471  and  _473
REMARK  203  A    between atoms: _473  and  _474
REMARK  204  A    between atoms: _477  and  _479
REMARK  205  A    between atoms: _479  and  _480
REMARK  206  A    between atoms: _479  and  _482
REMARK  207  A    between atoms: _483  and  _484
REMARK  208  A    between atoms: _487  and  _489
REMARK  209  A    between atoms: _489  and  _490
REMARK  210  A    between atoms: _489  and  _492
REMARK  211  A    between atoms: _492  and  _493
REMARK  212  A    between atoms: _493  and  _494
REMARK  213  A    between atoms: _494  and  _495
REMARK  214  A    between atoms: _504  and  _506
REMARK  215  A    between atoms: _506  and  _507
REMARK  216  A    between atoms: _510  and  _512
REMARK  217  A    between atoms: _512  and  _513
REMARK  218  A    between atoms: _512  and  _515
REMARK  219  A    between atoms: _515  and  _516
REMARK  220  A    between atoms: _519  and  _521
REMARK  221  A    between atoms: _521  and  _522
REMARK  222  A    between atoms: _521  and  _524
REMARK  223  A    between atoms: _524  and  _525
REMARK  224  A    between atoms: _528  and  _530
REMARK  225  A    between atoms: _530  and  _531
REMARK  226  A    between atoms: _530  and  _533
REMARK  227  A    between atoms: _533  and  _534
REMARK  228  A    between atoms: _537  and  _539
REMARK  229  A    between atoms: _539  and  _540
REMARK  230  A    between atoms: _539  and  _542
REMARK  231  A    between atoms: _542  and  _543
REMARK  232  A    between atoms: _543  and  _544
REMARK  233  A    between atoms: _544  and  _545
REMARK  234  A    between atoms: _545  and  _546
REMARK  235  A    between atoms: _550  and  _552
REMARK  236  A    between atoms: _552  and  _553
REMARK  237  A    between atoms: _552  and  _555
REMARK  238  A    between atoms: _555  and  _556
REMARK  239  A    between atoms: _556  and  _557
REMARK  240  A    between atoms: _560  and  _561
REMARK  241  A    between atoms: _566  and  _568
REMARK  242  A    between atoms: _568  and  _569
REMARK  243  A    between atoms: _568  and  _571
REMARK  244  A    between atoms: _571  and  _572
REMARK  245  A    between atoms: _575  and  _577
REMARK  246  A    between atoms: _577  and  _578
REMARK  247  A    between atoms: _577  and  _580
REMARK  248  A    between atoms: _580  and  _581
REMARK  249  A    between atoms: _581  and  _582
REMARK  250  A    between atoms: _582  and  _583
REMARK  251  A    between atoms: _592  and  _594
REMARK  252  A    between atoms: _594  and  _595
REMARK  253  A    between atoms: _594  and  _597
REMARK  254  A    between atoms: _597  and  _598
REMARK  255  A    between atoms: _598  and  _599
REMARK  256  A    between atoms: _601  and  _603
REMARK  257  A    between atoms: _603  and  _604
REMARK  258  A    between atoms: _603  and  _606
REMARK  259  A    between atoms: _606  and  _607
REMARK                            x       y       z     vdW  Elec       q    Type
REMARK                         _______ _______ _______ _____ _____    ______ ____
ROOT
ATOM      1  C   MET A   1      35.696  13.388  75.798  0.00  0.00    +0.238 C 
ATOM      2  O   MET A   1      36.820  13.808  76.103  0.00  0.00    -0.274 OA
ATOM      3  N   HIS A   2      35.494  12.582  74.763  0.00  0.00    -0.298 N 
ATOM      4  H   HIS A   2      34.545  12.195  74.584  0.00  0.00    +0.150 HD
ENDROOT
BRANCH   1   5
ATOM      5  CA  MET A   1      34.476  13.758  76.633  0.00  0.00    +0.146 C 
BRANCH   5   6
ATOM      6  N   MET A   1      33.369  14.130  75.755  0.00  0.00    -0.238 NA
ATOM      7  H   MET A   1      32.471  13.608  75.807  0.00  0.00    +0.142 HD
ENDBRANCH   5   6
BRANCH   5   8
ATOM      8  CB  MET A   1      34.035  12.625  77.548  0.00  0.00    +0.038 C 
BRANCH   8   9
ATOM      9  CG  MET A   1      32.969  12.993  78.572  0.00  0.00    +0.060 C 
BRANCH   9  10
ATOM     10  SD  MET A   1      33.544  14.087  79.872  0.00  0.00    -0.139 S 
ATOM     11  CE  MET A   1      34.444  12.878  80.866  0.00  0.00    +0.069 C 
ENDBRANCH   9  10
ENDBRANCH   8   9
ENDBRANCH   5   8
ENDBRANCH   1   5
BRANCH   3  12
ATOM     12  CA  HIS A   2      36.605  12.236  73.873  0.00  0.00    +0.143 C 
BRANCH  12  13
ATOM     13  C   HIS A   2      37.252  13.509  73.354  0.00  0.00    +0.227 C 
ATOM     14  O   HIS A   2      38.509  13.673  73.379  0.00  0.00    -0.286 OA
ENDBRANCH  12  13
BRANCH  12  15
ATOM     15  CB  HIS A   2      36.076  11.406  72.706  0.00  0.00    +0.075 C 
BRANCH  15  16
ATOM     16  CG  HIS A   2      37.110  11.085  71.690  0.00  0.00    +0.082 A 
ATOM     17  CD2 HIS A   2      37.781   9.941  71.415  0.00  0.00    +0.115 A 
ATOM     18  NE2 HIS A   2      38.628  10.127  70.360  0.00  0.00    -0.221 NA
ATOM     19  CE1 HIS A   2      38.436  11.386  69.975  0.00  0.00    +0.199 A 
ATOM     20  ND1 HIS A   2      37.530  11.976  70.744  0.00  0.00    -0.227 NA
ENDBRANCH  15  16
ENDBRANCH  12  15
ENDBRANCH   3  12
TORSDOF 9
REMARK  Name = ../refined-set-2016/1fcz/1fcz_pocket.pdb
REMARK  259 active torsions:
REMARK  status: ('A' for Active; 'I' for Inactive)
REMARK    1  A    between atoms: _1  and  _3
REMARK    2  A    between atoms: _3  and  _4
REMARK    3  A    between atoms: _3  and  _6
REMARK    4  A    between atoms: _6  and  _7
REMARK    5  A    between atoms: _10  and  _12
REMARK    6  A    between atoms: _12  and  _13
REMARK    7  A    between atoms: _12  and  _15
REMARK    8  A    between atoms: _15  and  _16
REMARK    9  A    between atoms: _23  and  _24
REMARK   10  A    between atoms: _29  and  _31
REMARK   11  A    between atoms: _31  and  _32
REMARK   12  A    between atoms: _31  and  _34
REMARK   13  A    between atoms: _34  and  _35
REMARK   14  A    between atoms: _38  and  _40
REMARK   15  A    between atoms: _40  and  _41
REMARK   16  A    between atoms: _40  and  _43
REMARK   17  A    between atoms: _43  and  _44
REMARK   18  A    between atoms: _54  and  _56
REMARK   19  A    between atoms: _56  and  _57
REMARK   20  A    between atoms: _56  and  _59
REMARK   21  A    between atoms: _59  and  _60
REMARK   22  A    between atoms: _60  and  _61
REMARK   23  A    between atoms: _61  and  _62
REMARK   24  A    between atoms: _62  and  _63
REMARK   25  A    between atoms: _67  and  _69
REMARK   26  A    between atoms: _69  and  _70
REMARK   27  A    between atoms: _69  and  _72
REMARK   28  A    between atoms: _72  and  _73
REMARK   29  A    between atoms: _79  and  _81
REMARK   30  A    between atoms: _81  and  _82
REMARK   31  A    between atoms: _81  and  _84
REMARK   32  A    between atoms: _84  and  _85
REMARK   33  A    between atoms: _87  and  _89
REMARK   34  A    between atoms: _89  and  _90
REMARK   35  A    between atoms: _89  and  _92
REMARK   36  A    between atoms: _92  and  _93
REMARK   37  A    between atoms: _93  and  _94
REMARK   38  A    between atoms: _97  and  _99
REMARK   39  A    between atoms: _99  and  _100
REMARK   40  A    between atoms: _99  and  _102
REMARK   41  A    between atoms: _102  and  _103
REMARK   42  A    between atoms: _106  and  _108
REMARK   43  A    between atoms: _108  and  _109
REMARK   44  A    between atoms: _112  and  _114
REMARK   45  A    between atoms: _114  and  _115
REMARK   46  A    between atoms: _114  and  _117
REMARK   47  A    between atoms: _117  and  _118
REMARK   48  A    between atoms: _121  and  _123
REMARK   49  A    between atoms: _123  and  _124
REMARK   50  A    between atoms: _123  and  _126
REMARK   51  A    between atoms: _126  and  _127
REMARK   52  A    between atoms: _127  and  _128
REMARK   53  A    between atoms: _128  and  _129
REMARK   54  A    between atoms: _129  and  _130
REMARK   55  A    between atoms: _134  and  _136
REMARK   56  A    between atoms: _136  and  _137
REMARK   57  A    between atoms: _136  and  _139
REMARK   58  A    between atoms: _141  and  _143
REMARK   59  A    between atoms: _143  and  _144
REMARK   60  A    between atoms: _143  and  _146
REMARK   61  A    between atoms: _146  and  _147
REMARK   62  A    between atoms: _150  and  _152
REMARK   63  A    between atoms: _152  and  _153
REMARK   64  A    between atoms: _152  and  _155
REMARK   65  A    between atoms: _155  and  _156
REMARK   66  A    between atoms: _156  and  _157
REMARK   67  A    between atoms: _157  and  _158
REMARK   68  A    between atoms: _158  and  _159
REMARK   69  A    between atoms: _163  and  _165
REMARK   70  A    between atoms: _165  and  _166
REMARK   71  A    between atoms: _165  and  _168
REMARK   72  A    between atoms: _168  and  _169
REMARK   73  A    between atoms: _172  and  _174
REMARK   74  A    between atoms: _174  and  _175
REMARK   75  A    between atoms: _174  and  _177
REMARK   76  A    between atoms: _179  and  _181
REMARK   77  A    between atoms: _181  and  _182
REMARK   78  A    between atoms: _181  and  _184
REMARK   79  A    between atoms: _184  and  _185
REMARK   80  A    between atoms: _188  and  _190
REMARK   81  A    between atoms: _190  and  _191
REMARK   82  A    between atoms: _190  and  _193
REMARK   83  A    between atoms: _193  and  _194
REMARK   84  A    between atoms: _197  and  _199
REMARK   85  A    between atoms: _199  and  _200
REMARK   86  A    between atoms: _199  and  _202
REMARK   87  A    between atoms: _202  and  _203
REMARK   88  A    between atoms: _206  and  _208
REMARK   89  A    between atoms: _208  and  _209
REMARK   90  A    between atoms: _208  and  _211
REMARK   91  A    between atoms: _211  and  _212
REMARK   92  A    between atoms: _215  and  _217
REMARK   93  A    between atoms: _217  and  _218
REMARK   94  A    between atoms: _217  and  _220
REMARK   95  A    between atoms: _220  and  _221
REMARK   96  A    between atoms: _221  and  _222
REMARK   97  A    between atoms: _224  and  _226
REMARK   98  A    between atoms: _226  and  _227
REMARK   99  A    between atoms: _226  and  _229
REMARK  100  A    between atoms: _229  and  _230
REMARK  101  A    between atoms: _233  and  _235
REMARK  102  A    between atoms: _235  and  _236
REMARK  103  A    between atoms: _235  and  _238
REMARK  104  A    between atoms: _238  and  _239
REMARK  105  A    between atoms: _239  and  _240
REMARK  106  A    between atoms: _240  and  _241
REMARK  107  A    between atoms: _250  and  _252
REMARK  108  A    between atoms: _252  and  _253
REMARK  109  A    between atoms: _252  and  _255
REMARK  110  A    between atoms: _255  and  _256
REMARK  111  A    between atoms: _259  and  _261
REMARK  112  A    between atoms: _261  and  _262
REMARK  113  A    between atoms: _261  and  _264
REMARK  114  A    between atoms: _266  and  _268
REMARK  115  A    between atoms: _268  and  _269
REMARK  116  A    between atoms: _268  and  _271
REMARK  117  A    between atoms: _271  and  _272
REMARK  118  A    between atoms: _275  and  _277
REMARK  119  A    between atoms: _277  and  _278
REMARK  120  A    between atoms: _277  and  _280
REMARK  121  A    between atoms: _280  and  _281
REMARK  122  A    between atoms: _281  and  _282
REMARK  123  A    between atoms: _282  and  _283
REMARK  124  A    between atoms: _292  and  _294
REMARK  125  A    between atoms: _294  and  _295
REMARK  126  A    between atoms: _294  and  _297
REMARK  127  A    between atoms: _297  and  _298
REMARK  128  A    between atoms: _298  and  _299
REMARK  129  A    between atoms: _301  and  _303
REMARK  130  A    between atoms: _303  and  _304
REMARK  131  A    between atoms: _303  and  _306
REMARK  132  A    between atoms: _306  and  _307
REMARK  133  A    between atoms: _310  and  _312
REMARK  134  A    between atoms: _312  and  _313
REMARK  135  A    between atoms: _312  and  _315
REMARK  136  A    between atoms: _315  and  _316
REMARK  137  A    between atoms: _322  and  _324
REMARK  138  A    between atoms: _324  and  _325
REMARK  139  A    between atoms: _324  and  _327
REMARK  140  A    between atoms: _327  and  _328
REMARK  141  A    between atoms: _330  and  _332
REMARK  142  A    between atoms: _332  and  _333
REMARK  143  A    between atoms: _332  and  _335
REMARK  144  A    between atoms: _335  and  _336
REMARK  145  A    between atoms: _339  and  _341
REMARK  146  A    between atoms: _341  and  _342
REMARK  147  A    between atoms: _344  and  _346
REMARK  148  A    between atoms: _346  and  _347
REMARK  149  A    between atoms: _346  and  _349
REMARK  150  A    between atoms: _349  and  _350
REMARK  151  A    between atoms: _353  and  _355
REMARK  152  A    between atoms: _355  and  _356
REMARK  153  A    between atoms: _355  and  _358
REMARK  154  A    between atoms: _358  and  _359
REMARK  155  A    between atoms: _359  and  _360
REMARK  156  A    between atoms: _362  and  _364
REMARK  157  A    between atoms: _364  and  _365
REMARK  158  A    between atoms: _364  and  _367
REMARK  159  A    between atoms: _367  and  _368
REMARK  160  A    between atoms: _373  and  _375
REMARK  161  A    between atoms: _375  and  _376
REMARK  162  A    between atoms: _379  and  _381
REMARK  163  A    between atoms: _381  and  _382
REMARK  164  A    between atoms: _384  and  _386
REMARK  165  A    between atoms: _386  and  _387
REMARK  166  A    between atoms: _386  and  _389
REMARK  167  A    between atoms: _389  and  _390
REMARK  168  A    between atoms: _396  and  _398
REMARK  169  A    between atoms: _398  and  _399
REMARK  170  A    between atoms: _401  and  _403
REMARK  171  A    between atoms: _403  and  _404
REMARK  172  A    between atoms: _403  and  _406
REMARK  173  A    between atoms: _406  and  _407
REMARK  174  A    between atoms: _410  and  _412
REMARK  175  A    between atoms: _412  and  _413
REMARK  176  A    between atoms: _412  and  _415
REMARK  177  A    between atoms: _415  and  _416
REMARK  178  A    between atoms: _419  and  _421
REMARK  179  A    between atoms: _421  and  _422
REMARK  180  A    between atoms: _421  and  _424
REMARK  181  A    between atoms: _427  and  _429
REMARK  182  A    between atoms: _429  and  _430
REMARK  183  A    between atoms: _429  and  _432
REMARK  184  A    between atoms: _432  and  _433
REMARK  185  A    between atoms: _436  and  _438
REMARK  186  A    between atoms: _438  and  _439
REMARK  187  A    between atoms: _438  and  _441
REMARK  188  A    between atoms: _441  and  _442
REMARK  189  A    between atoms: _445  and  _447
REMARK  190  A    between atoms: _447  and  _448
REMARK  191  A    between atoms: _447  and  _450
REMARK  192  A    between atoms: _450  and  _451
REMARK  193  A    between atoms: _453  and  _455
REMARK  194  A    between atoms: _455  and  _456
REMARK  195  A    between atoms: _455  and  _458
REMARK  196  A    between atoms: _458  and  _459
REMARK  197  A    between atoms: _459  and  _460
REMARK  198  A    between atoms: _460  and  _461
REMARK  199  A    between atoms: _461  and  _462
REMARK  200  A    between atoms: _466  and  _468
REMARK  201  A    between atoms: _468  and  _469
REMARK  202  A    between atoms: _471  and  _473
REMARK  203  A    between atoms: _473  and  _474
REMARK  204  A    between atoms: _477  and  _479
REMARK  205  A    between atoms: _479  and  _480
REMARK  206  A    between atoms: _479  and  _482
REMARK  207  A    between atoms: _483  and  _484
REMARK  208  A    between atoms: _487  and  _489
REMARK  209  A    between atoms: _489  and  _490
REMARK  210  A    between atoms: _489  and  _492
REMARK  211  A    between atoms: _492  and  _493
REMARK  212  A    between atoms: _493  and  _494
REMARK  213  A    between atoms: _494  and  _495
REMARK  214  A    between atoms: _504  and  _506
REMARK  215  A    between atoms: _506  and  _507
REMARK  216  A    between atoms: _510  and  _512
REMARK  217  A    between atoms: _512  and  _513
REMARK  218  A    between atoms: _512  and  _515
REMARK  219  A    between atoms: _515  and  _516
REMARK  220  A    between atoms: _519  and  _521
REMARK  221  A    between atoms: _521  and  _522
REMARK  222  A    between atoms: _521  and  _524
REMARK  223  A    between atoms: _524  and  _525
REMARK  224  A    between atoms: _528  and  _530
REMARK  225  A    between atoms: _530  and  _531
REMARK  226  A    between atoms: _530  and  _533
REMARK  227  A    between atoms: _533  and  _534
REMARK  228  A    between atoms: _537  and  _539
REMARK  229  A    between atoms: _539  and  _540
REMARK  230  A    between atoms: _539  and  _542
REMARK  231  A    between atoms: _542  and  _543
REMARK  232  A    between atoms: _543  and  _544
REMARK  233  A    between atoms: _544  and  _545
REMARK  234  A    between atoms: _545  and  _546
REMARK  235  A    between atoms: _550  and  _552
REMARK  236  A    between atoms: _552  and  _553
REMARK  237  A    between atoms: _552  and  _555
REMARK  238  A    between atoms: _555  and  _556
REMARK  239  A    between atoms: _556  and  _557
REMARK  240  A    between atoms: _560  and  _561
REMARK  241  A    between atoms: _566  and  _568
REMARK  242  A    between atoms: _568  and  _569
REMARK  243  A    between atoms: _568  and  _571
REMARK  244  A    between atoms: _571  and  _572
REMARK  245  A    between atoms: _575  and  _577
REMARK  246  A    between atoms: _577  and  _578
REMARK  247  A    between atoms: _577  and  _580
REMARK  248  A    between atoms: _580  and  _581
REMARK  249  A    between atoms: _581  and  _582
REMARK  250  A    between atoms: _582  and  _583
REMARK  251  A    between atoms: _592  and  _594
REMARK  252  A    between atoms: _594  and  _595
REMARK  253  A    between atoms: _594  and  _597
REMARK  254  A    between atoms: _597  and  _598
REMARK  255  A    between atoms: _598  and  _599
REMARK  256  A    between atoms: _601  and  _603
REMARK  257  A    between atoms: _603  and  _604
REMARK  258  A    between atoms: _603  and  _606
REMARK  259  A    between atoms: _606  and  _607
REMARK                            x       y       z     vdW  Elec       q    Type
REMARK                         _______ _______ _______ _____ _____    ______ ____
ROOT
ATOM      1  CA  PHE A   3      40.186  11.910  76.809  0.00  0.00    +0.153 C 
ENDROOT
BRANCH   1   3
ATOM      2  C   GLY A   2      41.119  14.021  76.069  0.00  0.00    +0.243 C 
ATOM      3  N   PHE A   3      40.058  13.326  76.451  0.00  0.00    -0.297 N 
ATOM      4  H   PHE A   3      39.127  13.788  76.497  0.00  0.00    +0.150 HD
ATOM      5  O   GLY A   2      42.222  13.500  76.047  0.00  0.00    -0.273 OA
BRANCH   2   6
ATOM      6  CA  GLY A   2      40.960  15.487  75.727  0.00  0.00    +0.176 C 
BRANCH   6   9
ATOM      7  C   ALA A   1      39.159  17.096  75.826  0.00  0.00    +0.238 C 
ATOM      8  O   ALA A   1      39.801  17.878  76.500  0.00  0.00    -0.274 OA
ATOM      9  N   GLY A   2      39.592  15.900  75.458  0.00  0.00    -0.296 N 
ATOM     10  H   GLY A   2      38.945  15.248  74.970  0.00  0.00    +0.150 HD
BRANCH   7  11
ATOM     11  CA  ALA A   1      37.730  17.467  75.422  0.00  0.00    +0.145 C 
ATOM     12  CB  ALA A   1      36.818  17.480  76.625  0.00  0.00    +0.028 C 
BRANCH  11  13
ATOM     13  N   ALA A   1      37.203  16.554  74.399  0.00  0.00    -0.238 NA
ATOM     14  H   ALA A   1      36.578  15.782  74.708  0.00  0.00    +0.142 HD
ENDBRANCH  11  13
ENDBRANCH   7  11
ENDBRANCH   6   9
ENDBRANCH   2   6
ENDBRANCH   1   3
BRANCH   1  15
ATOM     15  C   PHE A   3      40.664  11.094  75.613  0.00  0.00    +0.241 C 
ATOM     16  O   PHE A   3      41.418  10.153  75.858  0.00  0.00    -0.273 OA
ATOM     17  N   GLY A   4      40.278  11.438  74.405  0.00  0.00    -0.296 N 
ATOM     18  H   GLY A   4      39.569  12.187  74.273  0.00  0.00    +0.150 HD
BRANCH  17  19
ATOM     19  CA  GLY A   4      40.846  10.768  73.270  0.00  0.00    +0.163 C 
BRANCH  19  20
ATOM     20  C   GLY A   4      40.675   9.252  73.336  0.00  0.00    +0.229 C 
ATOM     21  O   GLY A   4      39.629   8.728  73.683  0.00  0.00    -0.286 OA
ENDBRANCH  19  20
ENDBRANCH  17  19
ENDBRANCH   1  15
BRANCH   1  22
ATOM     22  CB  PHE A   3      38.868  11.381  77.377  0.00  0.00    +0.055 C 
BRANCH  22  23
ATOM     23  CG  PHE A   3      38.606  11.845  78.812  0.00  0.00    -0.020 A 
ATOM     24  CD2 PHE A   3      38.946  11.040  79.895  0.00  0.00    -0.004 A 
ATOM     25  CE2 PHE A   3      38.712  11.472  81.182  0.00  0.00    -0.000 A 
ATOM     26  CZ  PHE A   3      38.170  12.710  81.431  0.00  0.00    -0.000 A 
ATOM     27  CE1 PHE A   3      37.823  13.517  80.352  0.00  0.00    -0.000 A 
ATOM     28  CD1 PHE A   3      38.050  13.083  79.061  0.00  0.00    -0.004 A 
ENDBRANCH  22  23
ENDBRANCH   1  22
TORSDOF 10
REMARK  Name = ../refined-set-2016/1fcz/1fcz_pocket.pdb
REMARK  259 active torsions:
REMARK  status: ('A' for Active; 'I' for Inactive)
REMARK    1  A    between atoms: _1  and  _3
REMARK    2  A    between atoms: _3  and  _4
REMARK    3  A    between atoms: _3  and  _6
REMARK    4  A    between atoms: _6  and  _7
REMARK    5  A    between atoms: _10  and  _12
REMARK    6  A    between atoms: _12  and  _13
REMARK    7  A    between atoms: _12  and  _15
REMARK    8  A    between atoms: _15  and  _16
REMARK    9  A    between atoms: _23  and  _24
REMARK   10  A    between atoms: _29  and  _31
REMARK   11  A    between atoms: _31  and  _32
REMARK   12  A    between atoms: _31  and  _34
REMARK   13  A    between atoms: _34  and  _35
REMARK   14  A    between atoms: _38  and  _40
REMARK   15  A    between atoms: _40  and  _41
REMARK   16  A    between atoms: _40  and  _43
REMARK   17  A    between atoms: _43  and  _44
REMARK   18  A    between atoms: _54  and  _56
REMARK   19  A    between atoms: _56  and  _57
REMARK   20  A    between atoms: _56  and  _59
REMARK   21  A    between atoms: _59  and  _60
REMARK   22  A    between atoms: _60  and  _61
REMARK   23  A    between atoms: _61  and  _62
REMARK   24  A    between atoms: _62  and  _63
REMARK   25  A    between atoms: _67  and  _69
REMARK   26  A    between atoms: _69  and  _70
REMARK   27  A    between atoms: _69  and  _72
REMARK   28  A    between atoms: _72  and  _73
REMARK   29  A    between atoms: _79  and  _81
REMARK   30  A    between atoms: _81  and  _82
REMARK   31  A    between atoms: _81  and  _84
REMARK   32  A    between atoms: _84  and  _85
REMARK   33  A    between atoms: _87  and  _89
REMARK   34  A    between atoms: _89  and  _90
REMARK   35  A    between atoms: _89  and  _92
REMARK   36  A    between atoms: _92  and  _93
REMARK   37  A    between atoms: _93  and  _94
REMARK   38  A    between atoms: _97  and  _99
REMARK   39  A    between atoms: _99  and  _100
REMARK   40  A    between atoms: _99  and  _102
REMARK   41  A    between atoms: _102  and  _103
REMARK   42  A    between atoms: _106  and  _108
REMARK   43  A    between atoms: _108  and  _109
REMARK   44  A    between atoms: _112  and  _114
REMARK   45  A    between atoms: _114  and  _115
REMARK   46  A    between atoms: _114  and  _117
REMARK   47  A    between atoms: _117  and  _118
REMARK   48  A    between atoms: _121  and  _123
REMARK   49  A    between atoms: _123  and  _124
REMARK   50  A    between atoms: _123  and  _126
REMARK   51  A    between atoms: _126  and  _127
REMARK   52  A    between atoms: _127  and  _128
REMARK   53  A    between atoms: _128  and  _129
REMARK   54  A    between atoms: _129  and  _130
REMARK   55  A    between atoms: _134  and  _136
REMARK   56  A    between atoms: _136  and  _137
REMARK   57  A    between atoms: _136  and  _139
REMARK   58  A    between atoms: _141  and  _143
REMARK   59  A    between atoms: _143  and  _144
REMARK   60  A    between atoms: _143  and  _146
REMARK   61  A    between atoms: _146  and  _147
REMARK   62  A    between atoms: _150  and  _152
REMARK   63  A    between atoms: _152  and  _153
REMARK   64  A    between atoms: _152  and  _155
REMARK   65  A    between atoms: _155  and  _156
REMARK   66  A    between atoms: _156  and  _157
REMARK   67  A    between atoms: _157  and  _158
REMARK   68  A    between atoms: _158  and  _159
REMARK   69  A    between atoms: _163  and  _165
REMARK   70  A    between atoms: _165  and  _166
REMARK   71  A    between atoms: _165  and  _168
REMARK   72  A    between atoms: _168  and  _169
REMARK   73  A    between atoms: _172  and  _174
REMARK   74  A    between atoms: _174  and  _175
REMARK   75  A    between atoms: _174  and  _177
REMARK   76  A    between atoms: _179  and  _181
REMARK   77  A    between atoms: _181  and  _182
REMARK   78  A    between atoms: _181  and  _184
REMARK   79  A    between atoms: _184  and  _185
REMARK   80  A    between atoms: _188  and  _190
REMARK   81  A    between atoms: _190  and  _191
REMARK   82  A    between atoms: _190  and  _193
REMARK   83  A    between atoms: _193  and  _194
REMARK   84  A    between atoms: _197  and  _199
REMARK   85  A    between atoms: _199  and  _200
REMARK   86  A    between atoms: _199  and  _202
REMARK   87  A    between atoms: _202  and  _203
REMARK   88  A    between atoms: _206  and  _208
REMARK   89  A    between atoms: _208  and  _209
REMARK   90  A    between atoms: _208  and  _211
REMARK   91  A    between atoms: _211  and  _212
REMARK   92  A    between atoms: _215  and  _217
REMARK   93  A    between atoms: _217  and  _218
REMARK   94  A    between atoms: _217  and  _220
REMARK   95  A    between atoms: _220  and  _221
REMARK   96  A    between atoms: _221  and  _222
REMARK   97  A    between atoms: _224  and  _226
REMARK   98  A    between atoms: _226  and  _227
REMARK   99  A    between atoms: _226  and  _229
REMARK  100  A    between atoms: _229  and  _230
REMARK  101  A    between atoms: _233  and  _235
REMARK  102  A    between atoms: _235  and  _236
REMARK  103  A    between atoms: _235  and  _238
REMARK  104  A    between atoms: _238  and  _239
REMARK  105  A    between atoms: _239  and  _240
REMARK  106  A    between atoms: _240  and  _241
REMARK  107  A    between atoms: _250  and  _252
REMARK  108  A    between atoms: _252  and  _253
REMARK  109  A    between atoms: _252  and  _255
REMARK  110  A    between atoms: _255  and  _256
REMARK  111  A    between atoms: _259  and  _261
REMARK  112  A    between atoms: _261  and  _262
REMARK  113  A    between atoms: _261  and  _264
REMARK  114  A    between atoms: _266  and  _268
REMARK  115  A    between atoms: _268  and  _269
REMARK  116  A    between atoms: _268  and  _271
REMARK  117  A    between atoms: _271  and  _272
REMARK  118  A    between atoms: _275  and  _277
REMARK  119  A    between atoms: _277  and  _278
REMARK  120  A    between atoms: _277  and  _280
REMARK  121  A    between atoms: _280  and  _281
REMARK  122  A    between atoms: _281  and  _282
REMARK  123  A    between atoms: _282  and  _283
REMARK  124  A    between atoms: _292  and  _294
REMARK  125  A    between atoms: _294  and  _295
REMARK  126  A    between atoms: _294  and  _297
REMARK  127  A    between atoms: _297  and  _298
REMARK  128  A    between atoms: _298  and  _299
REMARK  129  A    between atoms: _301  and  _303
REMARK  130  A    between atoms: _303  and  _304
REMARK  131  A    between atoms: _303  and  _306
REMARK  132  A    between atoms: _306  and  _307
REMARK  133  A    between atoms: _310  and  _312
REMARK  134  A    between atoms: _312  and  _313
REMARK  135  A    between atoms: _312  and  _315
REMARK  136  A    between atoms: _315  and  _316
REMARK  137  A    between atoms: _322  and  _324
REMARK  138  A    between atoms: _324  and  _325
REMARK  139  A    between atoms: _324  and  _327
REMARK  140  A    between atoms: _327  and  _328
REMARK  141  A    between atoms: _330  and  _332
REMARK  142  A    between atoms: _332  and  _333
REMARK  143  A    between atoms: _332  and  _335
REMARK  144  A    between atoms: _335  and  _336
REMARK  145  A    between atoms: _339  and  _341
REMARK  146  A    between atoms: _341  and  _342
REMARK  147  A    between atoms: _344  and  _346
REMARK  148  A    between atoms: _346  and  _347
REMARK  149  A    between atoms: _346  and  _349
REMARK  150  A    between atoms: _349  and  _350
REMARK  151  A    between atoms: _353  and  _355
REMARK  152  A    between atoms: _355  and  _356
REMARK  153  A    between atoms: _355  and  _358
REMARK  154  A    between atoms: _358  and  _359
REMARK  155  A    between atoms: _359  and  _360
REMARK  156  A    between atoms: _362  and  _364
REMARK  157  A    between atoms: _364  and  _365
REMARK  158  A    between atoms: _364  and  _367
REMARK  159  A    between atoms: _367  and  _368
REMARK  160  A    between atoms: _373  and  _375
REMARK  161  A    between atoms: _375  and  _376
REMARK  162  A    between atoms: _379  and  _381
REMARK  163  A    between atoms: _381  and  _382
REMARK  164  A    between atoms: _384  and  _386
REMARK  165  A    between atoms: _386  and  _387
REMARK  166  A    between atoms: _386  and  _389
REMARK  167  A    between atoms: _389  and  _390
REMARK  168  A    between atoms: _396  and  _398
REMARK  169  A    between atoms: _398  and  _399
REMARK  170  A    between atoms: _401  and  _403
REMARK  171  A    between atoms: _403  and  _404
REMARK  172  A    between atoms: _403  and  _406
REMARK  173  A    between atoms: _406  and  _407
REMARK  174  A    between atoms: _410  and  _412
REMARK  175  A    between atoms: _412  and  _413
REMARK  176  A    between atoms: _412  and  _415
REMARK  177  A    between atoms: _415  and  _416
REMARK  178  A    between atoms: _419  and  _421
REMARK  179  A    between atoms: _421  and  _422
REMARK  180  A    between atoms: _421  and  _424
REMARK  181  A    between atoms: _427  and  _429
REMARK  182  A    between atoms: _429  and  _430
REMARK  183  A    between atoms: _429  and  _432
REMARK  184  A    between atoms: _432  and  _433
REMARK  185  A    between atoms: _436  and  _438
REMARK  186  A    between atoms: _438  and  _439
REMARK  187  A    between atoms: _438  and  _441
REMARK  188  A    between atoms: _441  and  _442
REMARK  189  A    between atoms: _445  and  _447
REMARK  190  A    between atoms: _447  and  _448
REMARK  191  A    between atoms: _447  and  _450
REMARK  192  A    between atoms: _450  and  _451
REMARK  193  A    between atoms: _453  and  _455
REMARK  194  A    between atoms: _455  and  _456
REMARK  195  A    between atoms: _455  and  _458
REMARK  196  A    between atoms: _458  and  _459
REMARK  197  A    between atoms: _459  and  _460
REMARK  198  A    between atoms: _460  and  _461
REMARK  199  A    between atoms: _461  and  _462
REMARK  200  A    between atoms: _466  and  _468
REMARK  201  A    between atoms: _468  and  _469
REMARK  202  A    between atoms: _471  and  _473
REMARK  203  A    between atoms: _473  and  _474
REMARK  204  A    between atoms: _477  and  _479
REMARK  205  A    between atoms: _479  and  _480
REMARK  206  A    between atoms: _479  and  _482
REMARK  207  A    between atoms: _483  and  _484
REMARK  208  A    between atoms: _487  and  _489
REMARK  209  A    between atoms: _489  and  _490
REMARK  210  A    between atoms: _489  and  _492
REMARK  211  A    between atoms: _492  and  _493
REMARK  212  A    between atoms: _493  and  _494
REMARK  213  A    between atoms: _494  and  _495
REMARK  214  A    between atoms: _504  and  _506
REMARK  215  A    between atoms: _506  and  _507
REMARK  216  A    between atoms: _510  and  _512
REMARK  217  A    between atoms: _512  and  _513
REMARK  218  A    between atoms: _512  and  _515
REMARK  219  A    between atoms: _515  and  _516
REMARK  220  A    between atoms: _519  and  _521
REMARK  221  A    between atoms: _521  and  _522
REMARK  222  A    between atoms: _521  and  _524
REMARK  223  A    between atoms: _524  and  _525
REMARK  224  A    between atoms: _528  and  _530
REMARK  225  A    between atoms: _530  and  _531
REMARK  226  A    between atoms: _530  and  _533
REMARK  227  A    between atoms: _533  and  _534
REMARK  228  A    between atoms: _537  and  _539
REMARK  229  A    between atoms: _539  and  _540
REMARK  230  A    between atoms: _539  and  _542
REMARK  231  A    between atoms: _542  and  _543
REMARK  232  A    between atoms: _543  and  _544
REMARK  233  A    between atoms: _544  and  _545
REMARK  234  A    between atoms: _545  and  _546
REMARK  235  A    between atoms: _550  and  _552
REMARK  236  A    between atoms: _552  and  _553
REMARK  237  A    between atoms: _552  and  _555
REMARK  238  A    between atoms: _555  and  _556
REMARK  239  A    between atoms: _556  and  _557
REMARK  240  A    between atoms: _560  and  _561
REMARK  241  A    between atoms: _566  and  _568
REMARK  242  A    between atoms: _568  and  _569
REMARK  243  A    between atoms: _568  and  _571
REMARK  244  A    between atoms: _571  and  _572
REMARK  245  A    between atoms: _575  and  _577
REMARK  246  A    between atoms: _577  and  _578
REMARK  247  A    between atoms: _577  and  _580
REMARK  248  A    between atoms: _580  and  _581
REMARK  249  A    between atoms: _581  and  _582
REMARK  250  A    between atoms: _582  and  _583
REMARK  251  A    between atoms: _592  and  _594
REMARK  252  A    between atoms: _594  and  _595
REMARK  253  A    between atoms: _594  and  _597
REMARK  254  A    between atoms: _597  and  _598
REMARK  255  A    between atoms: _598  and  _599
REMARK  256  A    between atoms: _601  and  _603
REMARK  257  A    between atoms: _603  and  _604
REMARK  258  A    between atoms: _603  and  _606
REMARK  259  A    between atoms: _606  and  _607
REMARK                            x       y       z     vdW  Elec       q    Type
REMARK                         _______ _______ _______ _____ _____    ______ ____
ROOT
ATOM      1  C   LEU A   1      39.647   6.701  77.100  0.00  0.00    +0.238 C 
ATOM      2  O   LEU A   1      39.202   6.135  78.123  0.00  0.00    -0.274 OA
ATOM      3  N   THR A   2      38.874   7.397  76.274  0.00  0.00    -0.296 N 
ATOM      4  H   THR A   2      39.268   7.750  75.379  0.00  0.00    +0.150 HD
ENDROOT
BRANCH   1   5
ATOM      5  CA  LEU A   1      41.125   6.638  76.739  0.00  0.00    +0.145 C 
BRANCH   5   6
ATOM      6  N   LEU A   1      41.431   7.174  75.393  0.00  0.00    -0.238 NA
ATOM      7  H   LEU A   1      41.637   8.189  75.297  0.00  0.00    +0.142 HD
ENDBRANCH   5   6
BRANCH   5   8
ATOM      8  CB  LEU A   1      41.951   7.402  77.749  0.00  0.00    +0.026 C 
BRANCH   8   9
ATOM      9  CG  LEU A   1      41.962   6.973  79.201  0.00  0.00    +0.002 C 
ATOM     10  CD2 LEU A   1      42.917   7.853  79.988  0.00  0.00    +0.000 C 
ATOM     11  CD1 LEU A   1      42.311   5.507  79.309  0.00  0.00    +0.000 C 
ENDBRANCH   8   9
ENDBRANCH   5   8
ENDBRANCH   1   5
BRANCH   3  12
ATOM     12  CA  THR A   2      37.477   7.674  76.605  0.00  0.00    +0.164 C 
BRANCH  12  13
ATOM     13  C   THR A   2      36.684   6.437  76.964  0.00  0.00    +0.229 C 
ATOM     14  O   THR A   2      36.001   6.367  77.995  0.00  0.00    -0.286 OA
ENDBRANCH  12  13
BRANCH  12  15
ATOM     15  CB  THR A   2      36.757   8.376  75.418  0.00  0.00    +0.136 C 
ATOM     16  CG2 THR A   2      35.339   8.767  75.808  0.00  0.00    +0.034 C 
BRANCH  15  17
ATOM     17  OG1 THR A   2      37.476   9.561  75.060  0.00  0.00    -0.382 OA
ATOM     18  HG1 THR A   2      38.397   9.318  74.792  0.00  0.00    +0.210 HD
ENDBRANCH  15  17
ENDBRANCH  12  15
ENDBRANCH   3  12
TORSDOF 8
REMARK  Name = ../refined-set-2016/1fcz/1fcz_pocket.pdb
REMARK  259 active torsions:
REMARK  status: ('A' for Active; 'I' for Inactive)
REMARK    1  A    between atoms: _1  and  _3
REMARK    2  A    between atoms: _3  and  _4
REMARK    3  A    between atoms: _3  and  _6
REMARK    4  A    between atoms: _6  and  _7
REMARK    5  A    between atoms: _10  and  _12
REMARK    6  A    between atoms: _12  and  _13
REMARK    7  A    between atoms: _12  and  _15
REMARK    8  A    between atoms: _15  and  _16
REMARK    9  A    between atoms: _23  and  _24
REMARK   10  A    between atoms: _29  and  _31
REMARK   11  A    between atoms: _31  and  _32
REMARK   12  A    between atoms: _31  and  _34
REMARK   13  A    between atoms: _34  and  _35
REMARK   14  A    between atoms: _38  and  _40
REMARK   15  A    between atoms: _40  and  _41
REMARK   16  A    between atoms: _40  and  _43
REMARK   17  A    between atoms: _43  and  _44
REMARK   18  A    between atoms: _54  and  _56
REMARK   19  A    between atoms: _56  and  _57
REMARK   20  A    between atoms: _56  and  _59
REMARK   21  A    between atoms: _59  and  _60
REMARK   22  A    between atoms: _60  and  _61
REMARK   23  A    between atoms: _61  and  _62
REMARK   24  A    between atoms: _62  and  _63
REMARK   25  A    between atoms: _67  and  _69
REMARK   26  A    between atoms: _69  and  _70
REMARK   27  A    between atoms: _69  and  _72
REMARK   28  A    between atoms: _72  and  _73
REMARK   29  A    between atoms: _79  and  _81
REMARK   30  A    between atoms: _81  and  _82
REMARK   31  A    between atoms: _81  and  _84
REMARK   32  A    between atoms: _84  and  _85
REMARK   33  A    between atoms: _87  and  _89
REMARK   34  A    between atoms: _89  and  _90
REMARK   35  A    between atoms: _89  and  _92
REMARK   36  A    between atoms: _92  and  _93
REMARK   37  A    between atoms: _93  and  _94
REMARK   38  A    between atoms: _97  and  _99
REMARK   39  A    between atoms: _99  and  _100
REMARK   40  A    between atoms: _99  and  _102
REMARK   41  A    between atoms: _102  and  _103
REMARK   42  A    between atoms: _106  and  _108
REMARK   43  A    between atoms: _108  and  _109
REMARK   44  A    between atoms: _112  and  _114
REMARK   45  A    between atoms: _114  and  _115
REMARK   46  A    between atoms: _114  and  _117
REMARK   47  A    between atoms: _117  and  _118
REMARK   48  A    between atoms: _121  and  _123
REMARK   49  A    between atoms: _123  and  _124
REMARK   50  A    between atoms: _123  and  _126
REMARK   51  A    between atoms: _126  and  _127
REMARK   52  A    between atoms: _127  and  _128
REMARK   53  A    between atoms: _128  and  _129
REMARK   54  A    between atoms: _129  and  _130
REMARK   55  A    between atoms: _134  and  _136
REMARK   56  A    between atoms: _136  and  _137
REMARK   57  A    between atoms: _136  and  _139
REMARK   58  A    between atoms: _141  and  _143
REMARK   59  A    between atoms: _143  and  _144
REMARK   60  A    between atoms: _143  and  _146
REMARK   61  A    between atoms: _146  and  _147
REMARK   62  A    between atoms: _150  and  _152
REMARK   63  A    between atoms: _152  and  _153
REMARK   64  A    between atoms: _152  and  _155
REMARK   65  A    between atoms: _155  and  _156
REMARK   66  A    between atoms: _156  and  _157
REMARK   67  A    between atoms: _157  and  _158
REMARK   68  A    between atoms: _158  and  _159
REMARK   69  A    between atoms: _163  and  _165
REMARK   70  A    between atoms: _165  and  _166
REMARK   71  A    between atoms: _165  and  _168
REMARK   72  A    between atoms: _168  and  _169
REMARK   73  A    between atoms: _172  and  _174
REMARK   74  A    between atoms: _174  and  _175
REMARK   75  A    between atoms: _174  and  _177
REMARK   76  A    between atoms: _179  and  _181
REMARK   77  A    between atoms: _181  and  _182
REMARK   78  A    between atoms: _181  and  _184
REMARK   79  A    between atoms: _184  and  _185
REMARK   80  A    between atoms: _188  and  _190
REMARK   81  A    between atoms: _190  and  _191
REMARK   82  A    between atoms: _190  and  _193
REMARK   83  A    between atoms: _193  and  _194
REMARK   84  A    between atoms: _197  and  _199
REMARK   85  A    between atoms: _199  and  _200
REMARK   86  A    between atoms: _199  and  _202
REMARK   87  A    between atoms: _202  and  _203
REMARK   88  A    between atoms: _206  and  _208
REMARK   89  A    between atoms: _208  and  _209
REMARK   90  A    between atoms: _208  and  _211
REMARK   91  A    between atoms: _211  and  _212
REMARK   92  A    between atoms: _215  and  _217
REMARK   93  A    between atoms: _217  and  _218
REMARK   94  A    between atoms: _217  and  _220
REMARK   95  A    between atoms: _220  and  _221
REMARK   96  A    between atoms: _221  and  _222
REMARK   97  A    between atoms: _224  and  _226
REMARK   98  A    between atoms: _226  and  _227
REMARK   99  A    between atoms: _226  and  _229
REMARK  100  A    between atoms: _229  and  _230
REMARK  101  A    between atoms: _233  and  _235
REMARK  102  A    between atoms: _235  and  _236
REMARK  103  A    between atoms: _235  and  _238
REMARK  104  A    between atoms: _238  and  _239
REMARK  105  A    between atoms: _239  and  _240
REMARK  106  A    between atoms: _240  and  _241
REMARK  107  A    between atoms: _250  and  _252
REMARK  108  A    between atoms: _252  and  _253
REMARK  109  A    between atoms: _252  and  _255
REMARK  110  A    between atoms: _255  and  _256
REMARK  111  A    between atoms: _259  and  _261
REMARK  112  A    between atoms: _261  and  _262
REMARK  113  A    between atoms: _261  and  _264
REMARK  114  A    between atoms: _266  and  _268
REMARK  115  A    between atoms: _268  and  _269
REMARK  116  A    between atoms: _268  and  _271
REMARK  117  A    between atoms: _271  and  _272
REMARK  118  A    between atoms: _275  and  _277
REMARK  119  A    between atoms: _277  and  _278
REMARK  120  A    between atoms: _277  and  _280
REMARK  121  A    between atoms: _280  and  _281
REMARK  122  A    between atoms: _281  and  _282
REMARK  123  A    between atoms: _282  and  _283
REMARK  124  A    between atoms: _292  and  _294
REMARK  125  A    between atoms: _294  and  _295
REMARK  126  A    between atoms: _294  and  _297
REMARK  127  A    between atoms: _297  and  _298
REMARK  128  A    between atoms: _298  and  _299
REMARK  129  A    between atoms: _301  and  _303
REMARK  130  A    between atoms: _303  and  _304
REMARK  131  A    between atoms: _303  and  _306
REMARK  132  A    between atoms: _306  and  _307
REMARK  133  A    between atoms: _310  and  _312
REMARK  134  A    between atoms: _312  and  _313
REMARK  135  A    between atoms: _312  and  _315
REMARK  136  A    between atoms: _315  and  _316
REMARK  137  A    between atoms: _322  and  _324
REMARK  138  A    between atoms: _324  and  _325
REMARK  139  A    between atoms: _324  and  _327
REMARK  140  A    between atoms: _327  and  _328
REMARK  141  A    between atoms: _330  and  _332
REMARK  142  A    between atoms: _332  and  _333
REMARK  143  A    between atoms: _332  and  _335
REMARK  144  A    between atoms: _335  and  _336
REMARK  145  A    between atoms: _339  and  _341
REMARK  146  A    between atoms: _341  and  _342
REMARK  147  A    between atoms: _344  and  _346
REMARK  148  A    between atoms: _346  and  _347
REMARK  149  A    between atoms: _346  and  _349
REMARK  150  A    between atoms: _349  and  _350
REMARK  151  A    between atoms: _353  and  _355
REMARK  152  A    between atoms: _355  and  _356
REMARK  153  A    between atoms: _355  and  _358
REMARK  154  A    between atoms: _358  and  _359
REMARK  155  A    between atoms: _359  and  _360
REMARK  156  A    between atoms: _362  and  _364
REMARK  157  A    between atoms: _364  and  _365
REMARK  158  A    between atoms: _364  and  _367
REMARK  159  A    between atoms: _367  and  _368
REMARK  160  A    between atoms: _373  and  _375
REMARK  161  A    between atoms: _375  and  _376
REMARK  162  A    between atoms: _379  and  _381
REMARK  163  A    between atoms: _381  and  _382
REMARK  164  A    between atoms: _384  and  _386
REMARK  165  A    between atoms: _386  and  _387
REMARK  166  A    between atoms: _386  and  _389
REMARK  167  A    between atoms: _389  and  _390
REMARK  168  A    between atoms: _396  and  _398
REMARK  169  A    between atoms: _398  and  _399
REMARK  170  A    between atoms: _401  and  _403
REMARK  171  A    between atoms: _403  and  _404
REMARK  172  A    between atoms: _403  and  _406
REMARK  173  A    between atoms: _406  and  _407
REMARK  174  A    between atoms: _410  and  _412
REMARK  175  A    between atoms: _412  and  _413
REMARK  176  A    between atoms: _412  and  _415
REMARK  177  A    between atoms: _415  and  _416
REMARK  178  A    between atoms: _419  and  _421
REMARK  179  A    between atoms: _421  and  _422
REMARK  180  A    between atoms: _421  and  _424
REMARK  181  A    between atoms: _427  and  _429
REMARK  182  A    between atoms: _429  and  _430
REMARK  183  A    between atoms: _429  and  _432
REMARK  184  A    between atoms: _432  and  _433
REMARK  185  A    between atoms: _436  and  _438
REMARK  186  A    between atoms: _438  and  _439
REMARK  187  A    between atoms: _438  and  _441
REMARK  188  A    between atoms: _441  and  _442
REMARK  189  A    between atoms: _445  and  _447
REMARK  190  A    between atoms: _447  and  _448
REMARK  191  A    between atoms: _447  and  _450
REMARK  192  A    between atoms: _450  and  _451
REMARK  193  A    between atoms: _453  and  _455
REMARK  194  A    between atoms: _455  and  _456
REMARK  195  A    between atoms: _455  and  _458
REMARK  196  A    between atoms: _458  and  _459
REMARK  197  A    between atoms: _459  and  _460
REMARK  198  A    between atoms: _460  and  _461
REMARK  199  A    between atoms: _461  and  _462
REMARK  200  A    between atoms: _466  and  _468
REMARK  201  A    between atoms: _468  and  _469
REMARK  202  A    between atoms: _471  and  _473
REMARK  203  A    between atoms: _473  and  _474
REMARK  204  A    between atoms: _477  and  _479
REMARK  205  A    between atoms: _479  and  _480
REMARK  206  A    between atoms: _479  and  _482
REMARK  207  A    between atoms: _483  and  _484
REMARK  208  A    between atoms: _487  and  _489
REMARK  209  A    between atoms: _489  and  _490
REMARK  210  A    between atoms: _489  and  _492
REMARK  211  A    between atoms: _492  and  _493
REMARK  212  A    between atoms: _493  and  _494
REMARK  213  A    between atoms: _494  and  _495
REMARK  214  A    between atoms: _504  and  _506
REMARK  215  A    between atoms: _506  and  _507
REMARK  216  A    between atoms: _510  and  _512
REMARK  217  A    between atoms: _512  and  _513
REMARK  218  A    between atoms: _512  and  _515
REMARK  219  A    between atoms: _515  and  _516
REMARK  220  A    between atoms: _519  and  _521
REMARK  221  A    between atoms: _521  and  _522
REMARK  222  A    between atoms: _521  and  _524
REMARK  223  A    between atoms: _524  and  _525
REMARK  224  A    between atoms: _528  and  _530
REMARK  225  A    between atoms: _530  and  _531
REMARK  226  A    between atoms: _530  and  _533
REMARK  227  A    between atoms: _533  and  _534
REMARK  228  A    between atoms: _537  and  _539
REMARK  229  A    between atoms: _539  and  _540
REMARK  230  A    between atoms: _539  and  _542
REMARK  231  A    between atoms: _542  and  _543
REMARK  232  A    between atoms: _543  and  _544
REMARK  233  A    between atoms: _544  and  _545
REMARK  234  A    between atoms: _545  and  _546
REMARK  235  A    between atoms: _550  and  _552
REMARK  236  A    between atoms: _552  and  _553
REMARK  237  A    between atoms: _552  and  _555
REMARK  238  A    between atoms: _555  and  _556
REMARK  239  A    between atoms: _556  and  _557
REMARK  240  A    between atoms: _560  and  _561
REMARK  241  A    between atoms: _566  and  _568
REMARK  242  A    between atoms: _568  and  _569
REMARK  243  A    between atoms: _568  and  _571
REMARK  244  A    between atoms: _571  and  _572
REMARK  245  A    between atoms: _575  and  _577
REMARK  246  A    between atoms: _577  and  _578
REMARK  247  A    between atoms: _577  and  _580
REMARK  248  A    between atoms: _580  and  _581
REMARK  249  A    between atoms: _581  and  _582
REMARK  250  A    between atoms: _582  and  _583
REMARK  251  A    between atoms: _592  and  _594
REMARK  252  A    between atoms: _594  and  _595
REMARK  253  A    between atoms: _594  and  _597
REMARK  254  A    between atoms: _597  and  _598
REMARK  255  A    between atoms: _598  and  _599
REMARK  256  A    between atoms: _601  and  _603
REMARK  257  A    between atoms: _603  and  _604
REMARK  258  A    between atoms: _603  and  _606
REMARK  259  A    between atoms: _606  and  _607
REMARK                            x       y       z     vdW  Elec       q    Type
REMARK                         _______ _______ _______ _____ _____    ______ ____
ROOT
ATOM      1  CA  VAL A   1      37.048   5.560  81.453  0.00  0.00    +0.133 C 
ENDROOT
BRANCH   1   2
ATOM      2  CB  VAL A   1      37.412   7.045  81.272  0.00  0.00    +0.023 C 
ATOM      3  CG2 VAL A   1      36.675   7.876  82.316  0.00  0.00    +0.002 C 
ATOM      4  CG1 VAL A   1      38.913   7.260  81.434  0.00  0.00    +0.002 C 
ENDBRANCH   1   2
BRANCH   1   5
ATOM      5  N   VAL A   1      37.580   4.814  80.311  0.00  0.00    -0.239 NA
ATOM      6  H   VAL A   1      37.960   5.313  79.481  0.00  0.00    +0.142 HD
ENDBRANCH   1   5
BRANCH   1   7
ATOM      7  C   VAL A   1      35.540   5.296  81.631  0.00  0.00    +0.224 C 
ATOM      8  O   VAL A   1      35.087   5.089  82.766  0.00  0.00    -0.287 OA
ENDBRANCH   1   7
TORSDOF 3
REMARK  Name = ../refined-set-2016/1fcz/1fcz_pocket.pdb
REMARK  259 active torsions:
REMARK  status: ('A' for Active; 'I' for Inactive)
REMARK    1  A    between atoms: _1  and  _3
REMARK    2  A    between atoms: _3  and  _4
REMARK    3  A    between atoms: _3  and  _6
REMARK    4  A    between atoms: _6  and  _7
REMARK    5  A    between atoms: _10  and  _12
REMARK    6  A    between atoms: _12  and  _13
REMARK    7  A    between atoms: _12  and  _15
REMARK    8  A    between atoms: _15  and  _16
REMARK    9  A    between atoms: _23  and  _24
REMARK   10  A    between atoms: _29  and  _31
REMARK   11  A    between atoms: _31  and  _32
REMARK   12  A    between atoms: _31  and  _34
REMARK   13  A    between atoms: _34  and  _35
REMARK   14  A    between atoms: _38  and  _40
REMARK   15  A    between atoms: _40  and  _41
REMARK   16  A    between atoms: _40  and  _43
REMARK   17  A    between atoms: _43  and  _44
REMARK   18  A    between atoms: _54  and  _56
REMARK   19  A    between atoms: _56  and  _57
REMARK   20  A    between atoms: _56  and  _59
REMARK   21  A    between atoms: _59  and  _60
REMARK   22  A    between atoms: _60  and  _61
REMARK   23  A    between atoms: _61  and  _62
REMARK   24  A    between atoms: _62  and  _63
REMARK   25  A    between atoms: _67  and  _69
REMARK   26  A    between atoms: _69  and  _70
REMARK   27  A    between atoms: _69  and  _72
REMARK   28  A    between atoms: _72  and  _73
REMARK   29  A    between atoms: _79  and  _81
REMARK   30  A    between atoms: _81  and  _82
REMARK   31  A    between atoms: _81  and  _84
REMARK   32  A    between atoms: _84  and  _85
REMARK   33  A    between atoms: _87  and  _89
REMARK   34  A    between atoms: _89  and  _90
REMARK   35  A    between atoms: _89  and  _92
REMARK   36  A    between atoms: _92  and  _93
REMARK   37  A    between atoms: _93  and  _94
REMARK   38  A    between atoms: _97  and  _99
REMARK   39  A    between atoms: _99  and  _100
REMARK   40  A    between atoms: _99  and  _102
REMARK   41  A    between atoms: _102  and  _103
REMARK   42  A    between atoms: _106  and  _108
REMARK   43  A    between atoms: _108  and  _109
REMARK   44  A    between atoms: _112  and  _114
REMARK   45  A    between atoms: _114  and  _115
REMARK   46  A    between atoms: _114  and  _117
REMARK   47  A    between atoms: _117  and  _118
REMARK   48  A    between atoms: _121  and  _123
REMARK   49  A    between atoms: _123  and  _124
REMARK   50  A    between atoms: _123  and  _126
REMARK   51  A    between atoms: _126  and  _127
REMARK   52  A    between atoms: _127  and  _128
REMARK   53  A    between atoms: _128  and  _129
REMARK   54  A    between atoms: _129  and  _130
REMARK   55  A    between atoms: _134  and  _136
REMARK   56  A    between atoms: _136  and  _137
REMARK   57  A    between atoms: _136  and  _139
REMARK   58  A    between atoms: _141  and  _143
REMARK   59  A    between atoms: _143  and  _144
REMARK   60  A    between atoms: _143  and  _146
REMARK   61  A    between atoms: _146  and  _147
REMARK   62  A    between atoms: _150  and  _152
REMARK   63  A    between atoms: _152  and  _153
REMARK   64  A    between atoms: _152  and  _155
REMARK   65  A    between atoms: _155  and  _156
REMARK   66  A    between atoms: _156  and  _157
REMARK   67  A    between atoms: _157  and  _158
REMARK   68  A    between atoms: _158  and  _159
REMARK   69  A    between atoms: _163  and  _165
REMARK   70  A    between atoms: _165  and  _166
REMARK   71  A    between atoms: _165  and  _168
REMARK   72  A    between atoms: _168  and  _169
REMARK   73  A    between atoms: _172  and  _174
REMARK   74  A    between atoms: _174  and  _175
REMARK   75  A    between atoms: _174  and  _177
REMARK   76  A    between atoms: _179  and  _181
REMARK   77  A    between atoms: _181  and  _182
REMARK   78  A    between atoms: _181  and  _184
REMARK   79  A    between atoms: _184  and  _185
REMARK   80  A    between atoms: _188  and  _190
REMARK   81  A    between atoms: _190  and  _191
REMARK   82  A    between atoms: _190  and  _193
REMARK   83  A    between atoms: _193  and  _194
REMARK   84  A    between atoms: _197  and  _199
REMARK   85  A    between atoms: _199  and  _200
REMARK   86  A    between atoms: _199  and  _202
REMARK   87  A    between atoms: _202  and  _203
REMARK   88  A    between atoms: _206  and  _208
REMARK   89  A    between atoms: _208  and  _209
REMARK   90  A    between atoms: _208  and  _211
REMARK   91  A    between atoms: _211  and  _212
REMARK   92  A    between atoms: _215  and  _217
REMARK   93  A    between atoms: _217  and  _218
REMARK   94  A    between atoms: _217  and  _220
REMARK   95  A    between atoms: _220  and  _221
REMARK   96  A    between atoms: _221  and  _222
REMARK   97  A    between atoms: _224  and  _226
REMARK   98  A    between atoms: _226  and  _227
REMARK   99  A    between atoms: _226  and  _229
REMARK  100  A    between atoms: _229  and  _230
REMARK  101  A    between atoms: _233  and  _235
REMARK  102  A    between atoms: _235  and  _236
REMARK  103  A    between atoms: _235  and  _238
REMARK  104  A    between atoms: _238  and  _239
REMARK  105  A    between atoms: _239  and  _240
REMARK  106  A    between atoms: _240  and  _241
REMARK  107  A    between atoms: _250  and  _252
REMARK  108  A    between atoms: _252  and  _253
REMARK  109  A    between atoms: _252  and  _255
REMARK  110  A    between atoms: _255  and  _256
REMARK  111  A    between atoms: _259  and  _261
REMARK  112  A    between atoms: _261  and  _262
REMARK  113  A    between atoms: _261  and  _264
REMARK  114  A    between atoms: _266  and  _268
REMARK  115  A    between atoms: _268  and  _269
REMARK  116  A    between atoms: _268  and  _271
REMARK  117  A    between atoms: _271  and  _272
REMARK  118  A    between atoms: _275  and  _277
REMARK  119  A    between atoms: _277  and  _278
REMARK  120  A    between atoms: _277  and  _280
REMARK  121  A    between atoms: _280  and  _281
REMARK  122  A    between atoms: _281  and  _282
REMARK  123  A    between atoms: _282  and  _283
REMARK  124  A    between atoms: _292  and  _294
REMARK  125  A    between atoms: _294  and  _295
REMARK  126  A    between atoms: _294  and  _297
REMARK  127  A    between atoms: _297  and  _298
REMARK  128  A    between atoms: _298  and  _299
REMARK  129  A    between atoms: _301  and  _303
REMARK  130  A    between atoms: _303  and  _304
REMARK  131  A    between atoms: _303  and  _306
REMARK  132  A    between atoms: _306  and  _307
REMARK  133  A    between atoms: _310  and  _312
REMARK  134  A    between atoms: _312  and  _313
REMARK  135  A    between atoms: _312  and  _315
REMARK  136  A    between atoms: _315  and  _316
REMARK  137  A    between atoms: _322  and  _324
REMARK  138  A    between atoms: _324  and  _325
REMARK  139  A    between atoms: _324  and  _327
REMARK  140  A    between atoms: _327  and  _328
REMARK  141  A    between atoms: _330  and  _332
REMARK  142  A    between atoms: _332  and  _333
REMARK  143  A    between atoms: _332  and  _335
REMARK  144  A    between atoms: _335  and  _336
REMARK  145  A    between atoms: _339  and  _341
REMARK  146  A    between atoms: _341  and  _342
REMARK  147  A    between atoms: _344  and  _346
REMARK  148  A    between atoms: _346  and  _347
REMARK  149  A    between atoms: _346  and  _349
REMARK  150  A    between atoms: _349  and  _350
REMARK  151  A    between atoms: _353  and  _355
REMARK  152  A    between atoms: _355  and  _356
REMARK  153  A    between atoms: _355  and  _358
REMARK  154  A    between atoms: _358  and  _359
REMARK  155  A    between atoms: _359  and  _360
REMARK  156  A    between atoms: _362  and  _364
REMARK  157  A    between atoms: _364  and  _365
REMARK  158  A    between atoms: _364  and  _367
REMARK  159  A    between atoms: _367  and  _368
REMARK  160  A    between atoms: _373  and  _375
REMARK  161  A    between atoms: _375  and  _376
REMARK  162  A    between atoms: _379  and  _381
REMARK  163  A    between atoms: _381  and  _382
REMARK  164  A    between atoms: _384  and  _386
REMARK  165  A    between atoms: _386  and  _387
REMARK  166  A    between atoms: _386  and  _389
REMARK  167  A    between atoms: _389  and  _390
REMARK  168  A    between atoms: _396  and  _398
REMARK  169  A    between atoms: _398  and  _399
REMARK  170  A    between atoms: _401  and  _403
REMARK  171  A    between atoms: _403  and  _404
REMARK  172  A    between atoms: _403  and  _406
REMARK  173  A    between atoms: _406  and  _407
REMARK  174  A    between atoms: _410  and  _412
REMARK  175  A    between atoms: _412  and  _413
REMARK  176  A    between atoms: _412  and  _415
REMARK  177  A    between atoms: _415  and  _416
REMARK  178  A    between atoms: _419  and  _421
REMARK  179  A    between atoms: _421  and  _422
REMARK  180  A    between atoms: _421  and  _424
REMARK  181  A    between atoms: _427  and  _429
REMARK  182  A    between atoms: _429  and  _430
REMARK  183  A    between atoms: _429  and  _432
REMARK  184  A    between atoms: _432  and  _433
REMARK  185  A    between atoms: _436  and  _438
REMARK  186  A    between atoms: _438  and  _439
REMARK  187  A    between atoms: _438  and  _441
REMARK  188  A    between atoms: _441  and  _442
REMARK  189  A    between atoms: _445  and  _447
REMARK  190  A    between atoms: _447  and  _448
REMARK  191  A    between atoms: _447  and  _450
REMARK  192  A    between atoms: _450  and  _451
REMARK  193  A    between atoms: _453  and  _455
REMARK  194  A    between atoms: _455  and  _456
REMARK  195  A    between atoms: _455  and  _458
REMARK  196  A    between atoms: _458  and  _459
REMARK  197  A    between atoms: _459  and  _460
REMARK  198  A    between atoms: _460  and  _461
REMARK  199  A    between atoms: _461  and  _462
REMARK  200  A    between atoms: _466  and  _468
REMARK  201  A    between atoms: _468  and  _469
REMARK  202  A    between atoms: _471  and  _473
REMARK  203  A    between atoms: _473  and  _474
REMARK  204  A    between atoms: _477  and  _479
REMARK  205  A    between atoms: _479  and  _480
REMARK  206  A    between atoms: _479  and  _482
REMARK  207  A    between atoms: _483  and  _484
REMARK  208  A    between atoms: _487  and  _489
REMARK  209  A    between atoms: _489  and  _490
REMARK  210  A    between atoms: _489  and  _492
REMARK  211  A    between atoms: _492  and  _493
REMARK  212  A    between atoms: _493  and  _494
REMARK  213  A    between atoms: _494  and  _495
REMARK  214  A    between atoms: _504  and  _506
REMARK  215  A    between atoms: _506  and  _507
REMARK  216  A    between atoms: _510  and  _512
REMARK  217  A    between atoms: _512  and  _513
REMARK  218  A    between atoms: _512  and  _515
REMARK  219  A    between atoms: _515  and  _516
REMARK  220  A    between atoms: _519  and  _521
REMARK  221  A    between atoms: _521  and  _522
REMARK  222  A    between atoms: _521  and  _524
REMARK  223  A    between atoms: _524  and  _525
REMARK  224  A    between atoms: _528  and  _530
REMARK  225  A    between atoms: _530  and  _531
REMARK  226  A    between atoms: _530  and  _533
REMARK  227  A    between atoms: _533  and  _534
REMARK  228  A    between atoms: _537  and  _539
REMARK  229  A    between atoms: _539  and  _540
REMARK  230  A    between atoms: _539  and  _542
REMARK  231  A    between atoms: _542  and  _543
REMARK  232  A    between atoms: _543  and  _544
REMARK  233  A    between atoms: _544  and  _545
REMARK  234  A    between atoms: _545  and  _546
REMARK  235  A    between atoms: _550  and  _552
REMARK  236  A    between atoms: _552  and  _553
REMARK  237  A    between atoms: _552  and  _555
REMARK  238  A    between atoms: _555  and  _556
REMARK  239  A    between atoms: _556  and  _557
REMARK  240  A    between atoms: _560  and  _561
REMARK  241  A    between atoms: _566  and  _568
REMARK  242  A    between atoms: _568  and  _569
REMARK  243  A    between atoms: _568  and  _571
REMARK  244  A    between atoms: _571  and  _572
REMARK  245  A    between atoms: _575  and  _577
REMARK  246  A    between atoms: _577  and  _578
REMARK  247  A    between atoms: _577  and  _580
REMARK  248  A    between atoms: _580  and  _581
REMARK  249  A    between atoms: _581  and  _582
REMARK  250  A    between atoms: _582  and  _583
REMARK  251  A    between atoms: _592  and  _594
REMARK  252  A    between atoms: _594  and  _595
REMARK  253  A    between atoms: _594  and  _597
REMARK  254  A    between atoms: _597  and  _598
REMARK  255  A    between atoms: _598  and  _599
REMARK  256  A    between atoms: _601  and  _603
REMARK  257  A    between atoms: _603  and  _604
REMARK  258  A    between atoms: _603  and  _606
REMARK  259  A    between atoms: _606  and  _607
REMARK                            x       y       z     vdW  Elec       q    Type
REMARK                         _______ _______ _______ _____ _____    ______ ____
ROOT
ATOM      1  CA  LEU A   1      41.688   3.131  89.212  0.00  0.00    +0.133 C 
ENDROOT
BRANCH   1   2
ATOM      2  N   LEU A   1      41.504   1.699  89.340  0.00  0.00    -0.239 NA
ATOM      3  H   LEU A   1      41.143   1.302  90.231  0.00  0.00    +0.142 HD
ENDBRANCH   1   2
BRANCH   1   4
ATOM      4  C   LEU A   1      43.120   3.518  88.918  0.00  0.00    +0.224 C 
ATOM      5  O   LEU A   1      43.404   4.383  88.078  0.00  0.00    -0.287 OA
ENDBRANCH   1   4
BRANCH   1   6
ATOM      6  CB  LEU A   1      41.131   3.784  90.492  0.00  0.00    +0.025 C 
BRANCH   6   7
ATOM      7  CG  LEU A   1      40.989   5.250  90.551  0.00  0.00    +0.002 C 
ATOM      8  CD2 LEU A   1      40.486   5.586  91.973  0.00  0.00    +0.000 C 
ATOM      9  CD1 LEU A   1      40.052   5.827  89.493  0.00  0.00    +0.000 C 
ENDBRANCH   6   7
ENDBRANCH   1   6
TORSDOF 4
REMARK  Name = ../refined-set-2016/1fcz/1fcz_pocket.pdb
REMARK  259 active torsions:
REMARK  status: ('A' for Active; 'I' for Inactive)
REMARK    1  A    between atoms: _1  and  _3
REMARK    2  A    between atoms: _3  and  _4
REMARK    3  A    between atoms: _3  and  _6
REMARK    4  A    between atoms: _6  and  _7
REMARK    5  A    between atoms: _10  and  _12
REMARK    6  A    between atoms: _12  and  _13
REMARK    7  A    between atoms: _12  and  _15
REMARK    8  A    between atoms: _15  and  _16
REMARK    9  A    between atoms: _23  and  _24
REMARK   10  A    between atoms: _29  and  _31
REMARK   11  A    between atoms: _31  and  _32
REMARK   12  A    between atoms: _31  and  _34
REMARK   13  A    between atoms: _34  and  _35
REMARK   14  A    between atoms: _38  and  _40
REMARK   15  A    between atoms: _40  and  _41
REMARK   16  A    between atoms: _40  and  _43
REMARK   17  A    between atoms: _43  and  _44
REMARK   18  A    between atoms: _54  and  _56
REMARK   19  A    between atoms: _56  and  _57
REMARK   20  A    between atoms: _56  and  _59
REMARK   21  A    between atoms: _59  and  _60
REMARK   22  A    between atoms: _60  and  _61
REMARK   23  A    between atoms: _61  and  _62
REMARK   24  A    between atoms: _62  and  _63
REMARK   25  A    between atoms: _67  and  _69
REMARK   26  A    between atoms: _69  and  _70
REMARK   27  A    between atoms: _69  and  _72
REMARK   28  A    between atoms: _72  and  _73
REMARK   29  A    between atoms: _79  and  _81
REMARK   30  A    between atoms: _81  and  _82
REMARK   31  A    between atoms: _81  and  _84
REMARK   32  A    between atoms: _84  and  _85
REMARK   33  A    between atoms: _87  and  _89
REMARK   34  A    between atoms: _89  and  _90
REMARK   35  A    between atoms: _89  and  _92
REMARK   36  A    between atoms: _92  and  _93
REMARK   37  A    between atoms: _93  and  _94
REMARK   38  A    between atoms: _97  and  _99
REMARK   39  A    between atoms: _99  and  _100
REMARK   40  A    between atoms: _99  and  _102
REMARK   41  A    between atoms: _102  and  _103
REMARK   42  A    between atoms: _106  and  _108
REMARK   43  A    between atoms: _108  and  _109
REMARK   44  A    between atoms: _112  and  _114
REMARK   45  A    between atoms: _114  and  _115
REMARK   46  A    between atoms: _114  and  _117
REMARK   47  A    between atoms: _117  and  _118
REMARK   48  A    between atoms: _121  and  _123
REMARK   49  A    between atoms: _123  and  _124
REMARK   50  A    between atoms: _123  and  _126
REMARK   51  A    between atoms: _126  and  _127
REMARK   52  A    between atoms: _127  and  _128
REMARK   53  A    between atoms: _128  and  _129
REMARK   54  A    between atoms: _129  and  _130
REMARK   55  A    between atoms: _134  and  _136
REMARK   56  A    between atoms: _136  and  _137
REMARK   57  A    between atoms: _136  and  _139
REMARK   58  A    between atoms: _141  and  _143
REMARK   59  A    between atoms: _143  and  _144
REMARK   60  A    between atoms: _143  and  _146
REMARK   61  A    between atoms: _146  and  _147
REMARK   62  A    between atoms: _150  and  _152
REMARK   63  A    between atoms: _152  and  _153
REMARK   64  A    between atoms: _152  and  _155
REMARK   65  A    between atoms: _155  and  _156
REMARK   66  A    between atoms: _156  and  _157
REMARK   67  A    between atoms: _157  and  _158
REMARK   68  A    between atoms: _158  and  _159
REMARK   69  A    between atoms: _163  and  _165
REMARK   70  A    between atoms: _165  and  _166
REMARK   71  A    between atoms: _165  and  _168
REMARK   72  A    between atoms: _168  and  _169
REMARK   73  A    between atoms: _172  and  _174
REMARK   74  A    between atoms: _174  and  _175
REMARK   75  A    between atoms: _174  and  _177
REMARK   76  A    between atoms: _179  and  _181
REMARK   77  A    between atoms: _181  and  _182
REMARK   78  A    between atoms: _181  and  _184
REMARK   79  A    between atoms: _184  and  _185
REMARK   80  A    between atoms: _188  and  _190
REMARK   81  A    between atoms: _190  and  _191
REMARK   82  A    between atoms: _190  and  _193
REMARK   83  A    between atoms: _193  and  _194
REMARK   84  A    between atoms: _197  and  _199
REMARK   85  A    between atoms: _199  and  _200
REMARK   86  A    between atoms: _199  and  _202
REMARK   87  A    between atoms: _202  and  _203
REMARK   88  A    between atoms: _206  and  _208
REMARK   89  A    between atoms: _208  and  _209
REMARK   90  A    between atoms: _208  and  _211
REMARK   91  A    between atoms: _211  and  _212
REMARK   92  A    between atoms: _215  and  _217
REMARK   93  A    between atoms: _217  and  _218
REMARK   94  A    between atoms: _217  and  _220
REMARK   95  A    between atoms: _220  and  _221
REMARK   96  A    between atoms: _221  and  _222
REMARK   97  A    between atoms: _224  and  _226
REMARK   98  A    between atoms: _226  and  _227
REMARK   99  A    between atoms: _226  and  _229
REMARK  100  A    between atoms: _229  and  _230
REMARK  101  A    between atoms: _233  and  _235
REMARK  102  A    between atoms: _235  and  _236
REMARK  103  A    between atoms: _235  and  _238
REMARK  104  A    between atoms: _238  and  _239
REMARK  105  A    between atoms: _239  and  _240
REMARK  106  A    between atoms: _240  and  _241
REMARK  107  A    between atoms: _250  and  _252
REMARK  108  A    between atoms: _252  and  _253
REMARK  109  A    between atoms: _252  and  _255
REMARK  110  A    between atoms: _255  and  _256
REMARK  111  A    between atoms: _259  and  _261
REMARK  112  A    between atoms: _261  and  _262
REMARK  113  A    between atoms: _261  and  _264
REMARK  114  A    between atoms: _266  and  _268
REMARK  115  A    between atoms: _268  and  _269
REMARK  116  A    between atoms: _268  and  _271
REMARK  117  A    between atoms: _271  and  _272
REMARK  118  A    between atoms: _275  and  _277
REMARK  119  A    between atoms: _277  and  _278
REMARK  120  A    between atoms: _277  and  _280
REMARK  121  A    between atoms: _280  and  _281
REMARK  122  A    between atoms: _281  and  _282
REMARK  123  A    between atoms: _282  and  _283
REMARK  124  A    between atoms: _292  and  _294
REMARK  125  A    between atoms: _294  and  _295
REMARK  126  A    between atoms: _294  and  _297
REMARK  127  A    between atoms: _297  and  _298
REMARK  128  A    between atoms: _298  and  _299
REMARK  129  A    between atoms: _301  and  _303
REMARK  130  A    between atoms: _303  and  _304
REMARK  131  A    between atoms: _303  and  _306
REMARK  132  A    between atoms: _306  and  _307
REMARK  133  A    between atoms: _310  and  _312
REMARK  134  A    between atoms: _312  and  _313
REMARK  135  A    between atoms: _312  and  _315
REMARK  136  A    between atoms: _315  and  _316
REMARK  137  A    between atoms: _322  and  _324
REMARK  138  A    between atoms: _324  and  _325
REMARK  139  A    between atoms: _324  and  _327
REMARK  140  A    between atoms: _327  and  _328
REMARK  141  A    between atoms: _330  and  _332
REMARK  142  A    between atoms: _332  and  _333
REMARK  143  A    between atoms: _332  and  _335
REMARK  144  A    between atoms: _335  and  _336
REMARK  145  A    between atoms: _339  and  _341
REMARK  146  A    between atoms: _341  and  _342
REMARK  147  A    between atoms: _344  and  _346
REMARK  148  A    between atoms: _346  and  _347
REMARK  149  A    between atoms: _346  and  _349
REMARK  150  A    between atoms: _349  and  _350
REMARK  151  A    between atoms: _353  and  _355
REMARK  152  A    between atoms: _355  and  _356
REMARK  153  A    between atoms: _355  and  _358
REMARK  154  A    between atoms: _358  and  _359
REMARK  155  A    between atoms: _359  and  _360
REMARK  156  A    between atoms: _362  and  _364
REMARK  157  A    between atoms: _364  and  _365
REMARK  158  A    between atoms: _364  and  _367
REMARK  159  A    between atoms: _367  and  _368
REMARK  160  A    between atoms: _373  and  _375
REMARK  161  A    between atoms: _375  and  _376
REMARK  162  A    between atoms: _379  and  _381
REMARK  163  A    between atoms: _381  and  _382
REMARK  164  A    between atoms: _384  and  _386
REMARK  165  A    between atoms: _386  and  _387
REMARK  166  A    between atoms: _386  and  _389
REMARK  167  A    between atoms: _389  and  _390
REMARK  168  A    between atoms: _396  and  _398
REMARK  169  A    between atoms: _398  and  _399
REMARK  170  A    between atoms: _401  and  _403
REMARK  171  A    between atoms: _403  and  _404
REMARK  172  A    between atoms: _403  and  _406
REMARK  173  A    between atoms: _406  and  _407
REMARK  174  A    between atoms: _410  and  _412
REMARK  175  A    between atoms: _412  and  _413
REMARK  176  A    between atoms: _412  and  _415
REMARK  177  A    between atoms: _415  and  _416
REMARK  178  A    between atoms: _419  and  _421
REMARK  179  A    between atoms: _421  and  _422
REMARK  180  A    between atoms: _421  and  _424
REMARK  181  A    between atoms: _427  and  _429
REMARK  182  A    between atoms: _429  and  _430
REMARK  183  A    between atoms: _429  and  _432
REMARK  184  A    between atoms: _432  and  _433
REMARK  185  A    between atoms: _436  and  _438
REMARK  186  A    between atoms: _438  and  _439
REMARK  187  A    between atoms: _438  and  _441
REMARK  188  A    between atoms: _441  and  _442
REMARK  189  A    between atoms: _445  and  _447
REMARK  190  A    between atoms: _447  and  _448
REMARK  191  A    between atoms: _447  and  _450
REMARK  192  A    between atoms: _450  and  _451
REMARK  193  A    between atoms: _453  and  _455
REMARK  194  A    between atoms: _455  and  _456
REMARK  195  A    between atoms: _455  and  _458
REMARK  196  A    between atoms: _458  and  _459
REMARK  197  A    between atoms: _459  and  _460
REMARK  198  A    between atoms: _460  and  _461
REMARK  199  A    between atoms: _461  and  _462
REMARK  200  A    between atoms: _466  and  _468
REMARK  201  A    between atoms: _468  and  _469
REMARK  202  A    between atoms: _471  and  _473
REMARK  203  A    between atoms: _473  and  _474
REMARK  204  A    between atoms: _477  and  _479
REMARK  205  A    between atoms: _479  and  _480
REMARK  206  A    between atoms: _479  and  _482
REMARK  207  A    between atoms: _483  and  _484
REMARK  208  A    between atoms: _487  and  _489
REMARK  209  A    between atoms: _489  and  _490
REMARK  210  A    between atoms: _489  and  _492
REMARK  211  A    between atoms: _492  and  _493
REMARK  212  A    between atoms: _493  and  _494
REMARK  213  A    between atoms: _494  and  _495
REMARK  214  A    between atoms: _504  and  _506
REMARK  215  A    between atoms: _506  and  _507
REMARK  216  A    between atoms: _510  and  _512
REMARK  217  A    between atoms: _512  and  _513
REMARK  218  A    between atoms: _512  and  _515
REMARK  219  A    between atoms: _515  and  _516
REMARK  220  A    between atoms: _519  and  _521
REMARK  221  A    between atoms: _521  and  _522
REMARK  222  A    between atoms: _521  and  _524
REMARK  223  A    between atoms: _524  and  _525
REMARK  224  A    between atoms: _528  and  _530
REMARK  225  A    between atoms: _530  and  _531
REMARK  226  A    between atoms: _530  and  _533
REMARK  227  A    between atoms: _533  and  _534
REMARK  228  A    between atoms: _537  and  _539
REMARK  229  A    between atoms: _539  and  _540
REMARK  230  A    between atoms: _539  and  _542
REMARK  231  A    between atoms: _542  and  _543
REMARK  232  A    between atoms: _543  and  _544
REMARK  233  A    between atoms: _544  and  _545
REMARK  234  A    between atoms: _545  and  _546
REMARK  235  A    between atoms: _550  and  _552
REMARK  236  A    between atoms: _552  and  _553
REMARK  237  A    between atoms: _552  and  _555
REMARK  238  A    between atoms: _555  and  _556
REMARK  239  A    between atoms: _556  and  _557
REMARK  240  A    between atoms: _560  and  _561
REMARK  241  A    between atoms: _566  and  _568
REMARK  242  A    between atoms: _568  and  _569
REMARK  243  A    between atoms: _568  and  _571
REMARK  244  A    between atoms: _571  and  _572
REMARK  245  A    between atoms: _575  and  _577
REMARK  246  A    between atoms: _577  and  _578
REMARK  247  A    between atoms: _577  and  _580
REMARK  248  A    between atoms: _580  and  _581
REMARK  249  A    between atoms: _581  and  _582
REMARK  250  A    between atoms: _582  and  _583
REMARK  251  A    between atoms: _592  and  _594
REMARK  252  A    between atoms: _594  and  _595
REMARK  253  A    between atoms: _594  and  _597
REMARK  254  A    between atoms: _597  and  _598
REMARK  255  A    between atoms: _598  and  _599
REMARK  256  A    between atoms: _601  and  _603
REMARK  257  A    between atoms: _603  and  _604
REMARK  258  A    between atoms: _603  and  _606
REMARK  259  A    between atoms: _606  and  _607
REMARK                            x       y       z     vdW  Elec       q    Type
REMARK                         _______ _______ _______ _____ _____    ______ ____
ROOT
ATOM      1  C   ILE A   1      44.047   5.323  84.577  0.00  0.00    +0.238 C 
ATOM      2  N   SER A   2      44.466   5.623  85.795  0.00  0.00    -0.296 N 
ATOM      3  H   SER A   2      44.248   4.997  86.596  0.00  0.00    +0.150 HD
ATOM      4  O   ILE A   1      44.263   6.043  83.605  0.00  0.00    -0.274 OA
ENDROOT
BRANCH   1   5
ATOM      5  CA  ILE A   1      43.316   3.996  84.343  0.00  0.00    +0.145 C 
BRANCH   5   6
ATOM      6  N   ILE A   1      43.852   2.997  85.283  0.00  0.00    -0.238 NA
ATOM      7  H   ILE A   1      43.308   2.711  86.122  0.00  0.00    +0.142 HD
ENDBRANCH   5   6
BRANCH   5   8
ATOM      8  CB  ILE A   1      41.806   4.135  84.533  0.00  0.00    +0.025 C 
ATOM      9  CG2 ILE A   1      41.213   4.999  83.432  0.00  0.00    +0.002 C 
BRANCH   8  10
ATOM     10  CG1 ILE A   1      41.054   2.817  84.642  0.00  0.00    +0.002 C 
ATOM     11  CD1 ILE A   1      39.832   2.722  83.765  0.00  0.00    +0.000 C 
ENDBRANCH   8  10
ENDBRANCH   5   8
ENDBRANCH   1   5
BRANCH   2  12
ATOM     12  CA  SER A   2      45.249   6.860  86.004  0.00  0.00    +0.166 C 
BRANCH  12  13
ATOM     13  C   SER A   2      46.635   6.761  85.383  0.00  0.00    +0.229 C 
ATOM     14  O   SER A   2      47.150   7.783  84.875  0.00  0.00    -0.286 OA
ENDBRANCH  12  13
BRANCH  12  15
ATOM     15  CB  SER A   2      45.335   7.251  87.470  0.00  0.00    +0.165 C 
BRANCH  15  16
ATOM     16  OG  SER A   2      46.113   6.337  88.197  0.00  0.00    -0.380 OA
ATOM     17  H   SER A   2      46.150   6.618  89.146  0.00  0.00    +0.211 HD
ENDBRANCH  15  16
ENDBRANCH  12  15
ENDBRANCH   2  12
TORSDOF 8
REMARK  Name = ../refined-set-2016/1fcz/1fcz_pocket.pdb
REMARK  259 active torsions:
REMARK  status: ('A' for Active; 'I' for Inactive)
REMARK    1  A    between atoms: _1  and  _3
REMARK    2  A    between atoms: _3  and  _4
REMARK    3  A    between atoms: _3  and  _6
REMARK    4  A    between atoms: _6  and  _7
REMARK    5  A    between atoms: _10  and  _12
REMARK    6  A    between atoms: _12  and  _13
REMARK    7  A    between atoms: _12  and  _15
REMARK    8  A    between atoms: _15  and  _16
REMARK    9  A    between atoms: _23  and  _24
REMARK   10  A    between atoms: _29  and  _31
REMARK   11  A    between atoms: _31  and  _32
REMARK   12  A    between atoms: _31  and  _34
REMARK   13  A    between atoms: _34  and  _35
REMARK   14  A    between atoms: _38  and  _40
REMARK   15  A    between atoms: _40  and  _41
REMARK   16  A    between atoms: _40  and  _43
REMARK   17  A    between atoms: _43  and  _44
REMARK   18  A    between atoms: _54  and  _56
REMARK   19  A    between atoms: _56  and  _57
REMARK   20  A    between atoms: _56  and  _59
REMARK   21  A    between atoms: _59  and  _60
REMARK   22  A    between atoms: _60  and  _61
REMARK   23  A    between atoms: _61  and  _62
REMARK   24  A    between atoms: _62  and  _63
REMARK   25  A    between atoms: _67  and  _69
REMARK   26  A    between atoms: _69  and  _70
REMARK   27  A    between atoms: _69  and  _72
REMARK   28  A    between atoms: _72  and  _73
REMARK   29  A    between atoms: _79  and  _81
REMARK   30  A    between atoms: _81  and  _82
REMARK   31  A    between atoms: _81  and  _84
REMARK   32  A    between atoms: _84  and  _85
REMARK   33  A    between atoms: _87  and  _89
REMARK   34  A    between atoms: _89  and  _90
REMARK   35  A    between atoms: _89  and  _92
REMARK   36  A    between atoms: _92  and  _93
REMARK   37  A    between atoms: _93  and  _94
REMARK   38  A    between atoms: _97  and  _99
REMARK   39  A    between atoms: _99  and  _100
REMARK   40  A    between atoms: _99  and  _102
REMARK   41  A    between atoms: _102  and  _103
REMARK   42  A    between atoms: _106  and  _108
REMARK   43  A    between atoms: _108  and  _109
REMARK   44  A    between atoms: _112  and  _114
REMARK   45  A    between atoms: _114  and  _115
REMARK   46  A    between atoms: _114  and  _117
REMARK   47  A    between atoms: _117  and  _118
REMARK   48  A    between atoms: _121  and  _123
REMARK   49  A    between atoms: _123  and  _124
REMARK   50  A    between atoms: _123  and  _126
REMARK   51  A    between atoms: _126  and  _127
REMARK   52  A    between atoms: _127  and  _128
REMARK   53  A    between atoms: _128  and  _129
REMARK   54  A    between atoms: _129  and  _130
REMARK   55  A    between atoms: _134  and  _136
REMARK   56  A    between atoms: _136  and  _137
REMARK   57  A    between atoms: _136  and  _139
REMARK   58  A    between atoms: _141  and  _143
REMARK   59  A    between atoms: _143  and  _144
REMARK   60  A    between atoms: _143  and  _146
REMARK   61  A    between atoms: _146  and  _147
REMARK   62  A    between atoms: _150  and  _152
REMARK   63  A    between atoms: _152  and  _153
REMARK   64  A    between atoms: _152  and  _155
REMARK   65  A    between atoms: _155  and  _156
REMARK   66  A    between atoms: _156  and  _157
REMARK   67  A    between atoms: _157  and  _158
REMARK   68  A    between atoms: _158  and  _159
REMARK   69  A    between atoms: _163  and  _165
REMARK   70  A    between atoms: _165  and  _166
REMARK   71  A    between atoms: _165  and  _168
REMARK   72  A    between atoms: _168  and  _169
REMARK   73  A    between atoms: _172  and  _174
REMARK   74  A    between atoms: _174  and  _175
REMARK   75  A    between atoms: _174  and  _177
REMARK   76  A    between atoms: _179  and  _181
REMARK   77  A    between atoms: _181  and  _182
REMARK   78  A    between atoms: _181  and  _184
REMARK   79  A    between atoms: _184  and  _185
REMARK   80  A    between atoms: _188  and  _190
REMARK   81  A    between atoms: _190  and  _191
REMARK   82  A    between atoms: _190  and  _193
REMARK   83  A    between atoms: _193  and  _194
REMARK   84  A    between atoms: _197  and  _199
REMARK   85  A    between atoms: _199  and  _200
REMARK   86  A    between atoms: _199  and  _202
REMARK   87  A    between atoms: _202  and  _203
REMARK   88  A    between atoms: _206  and  _208
REMARK   89  A    between atoms: _208  and  _209
REMARK   90  A    between atoms: _208  and  _211
REMARK   91  A    between atoms: _211  and  _212
REMARK   92  A    between atoms: _215  and  _217
REMARK   93  A    between atoms: _217  and  _218
REMARK   94  A    between atoms: _217  and  _220
REMARK   95  A    between atoms: _220  and  _221
REMARK   96  A    between atoms: _221  and  _222
REMARK   97  A    between atoms: _224  and  _226
REMARK   98  A    between atoms: _226  and  _227
REMARK   99  A    between atoms: _226  and  _229
REMARK  100  A    between atoms: _229  and  _230
REMARK  101  A    between atoms: _233  and  _235
REMARK  102  A    between atoms: _235  and  _236
REMARK  103  A    between atoms: _235  and  _238
REMARK  104  A    between atoms: _238  and  _239
REMARK  105  A    between atoms: _239  and  _240
REMARK  106  A    between atoms: _240  and  _241
REMARK  107  A    between atoms: _250  and  _252
REMARK  108  A    between atoms: _252  and  _253
REMARK  109  A    between atoms: _252  and  _255
REMARK  110  A    between atoms: _255  and  _256
REMARK  111  A    between atoms: _259  and  _261
REMARK  112  A    between atoms: _261  and  _262
REMARK  113  A    between atoms: _261  and  _264
REMARK  114  A    between atoms: _266  and  _268
REMARK  115  A    between atoms: _268  and  _269
REMARK  116  A    between atoms: _268  and  _271
REMARK  117  A    between atoms: _271  and  _272
REMARK  118  A    between atoms: _275  and  _277
REMARK  119  A    between atoms: _277  and  _278
REMARK  120  A    between atoms: _277  and  _280
REMARK  121  A    between atoms: _280  and  _281
REMARK  122  A    between atoms: _281  and  _282
REMARK  123  A    between atoms: _282  and  _283
REMARK  124  A    between atoms: _292  and  _294
REMARK  125  A    between atoms: _294  and  _295
REMARK  126  A    between atoms: _294  and  _297
REMARK  127  A    between atoms: _297  and  _298
REMARK  128  A    between atoms: _298  and  _299
REMARK  129  A    between atoms: _301  and  _303
REMARK  130  A    between atoms: _303  and  _304
REMARK  131  A    between atoms: _303  and  _306
REMARK  132  A    between atoms: _306  and  _307
REMARK  133  A    between atoms: _310  and  _312
REMARK  134  A    between atoms: _312  and  _313
REMARK  135  A    between atoms: _312  and  _315
REMARK  136  A    between atoms: _315  and  _316
REMARK  137  A    between atoms: _322  and  _324
REMARK  138  A    between atoms: _324  and  _325
REMARK  139  A    between atoms: _324  and  _327
REMARK  140  A    between atoms: _327  and  _328
REMARK  141  A    between atoms: _330  and  _332
REMARK  142  A    between atoms: _332  and  _333
REMARK  143  A    between atoms: _332  and  _335
REMARK  144  A    between atoms: _335  and  _336
REMARK  145  A    between atoms: _339  and  _341
REMARK  146  A    between atoms: _341  and  _342
REMARK  147  A    between atoms: _344  and  _346
REMARK  148  A    between atoms: _346  and  _347
REMARK  149  A    between atoms: _346  and  _349
REMARK  150  A    between atoms: _349  and  _350
REMARK  151  A    between atoms: _353  and  _355
REMARK  152  A    between atoms: _355  and  _356
REMARK  153  A    between atoms: _355  and  _358
REMARK  154  A    between atoms: _358  and  _359
REMARK  155  A    between atoms: _359  and  _360
REMARK  156  A    between atoms: _362  and  _364
REMARK  157  A    between atoms: _364  and  _365
REMARK  158  A    between atoms: _364  and  _367
REMARK  159  A    between atoms: _367  and  _368
REMARK  160  A    between atoms: _373  and  _375
REMARK  161  A    between atoms: _375  and  _376
REMARK  162  A    between atoms: _379  and  _381
REMARK  163  A    between atoms: _381  and  _382
REMARK  164  A    between atoms: _384  and  _386
REMARK  165  A    between atoms: _386  and  _387
REMARK  166  A    between atoms: _386  and  _389
REMARK  167  A    between atoms: _389  and  _390
REMARK  168  A    between atoms: _396  and  _398
REMARK  169  A    between atoms: _398  and  _399
REMARK  170  A    between atoms: _401  and  _403
REMARK  171  A    between atoms: _403  and  _404
REMARK  172  A    between atoms: _403  and  _406
REMARK  173  A    between atoms: _406  and  _407
REMARK  174  A    between atoms: _410  and  _412
REMARK  175  A    between atoms: _412  and  _413
REMARK  176  A    between atoms: _412  and  _415
REMARK  177  A    between atoms: _415  and  _416
REMARK  178  A    between atoms: _419  and  _421
REMARK  179  A    between atoms: _421  and  _422
REMARK  180  A    between atoms: _421  and  _424
REMARK  181  A    between atoms: _427  and  _429
REMARK  182  A    between atoms: _429  and  _430
REMARK  183  A    between atoms: _429  and  _432
REMARK  184  A    between atoms: _432  and  _433
REMARK  185  A    between atoms: _436  and  _438
REMARK  186  A    between atoms: _438  and  _439
REMARK  187  A    between atoms: _438  and  _441
REMARK  188  A    between atoms: _441  and  _442
REMARK  189  A    between atoms: _445  and  _447
REMARK  190  A    between atoms: _447  and  _448
REMARK  191  A    between atoms: _447  and  _450
REMARK  192  A    between atoms: _450  and  _451
REMARK  193  A    between atoms: _453  and  _455
REMARK  194  A    between atoms: _455  and  _456
REMARK  195  A    between atoms: _455  and  _458
REMARK  196  A    between atoms: _458  and  _459
REMARK  197  A    between atoms: _459  and  _460
REMARK  198  A    between atoms: _460  and  _461
REMARK  199  A    between atoms: _461  and  _462
REMARK  200  A    between atoms: _466  and  _468
REMARK  201  A    between atoms: _468  and  _469
REMARK  202  A    between atoms: _471  and  _473
REMARK  203  A    between atoms: _473  and  _474
REMARK  204  A    between atoms: _477  and  _479
REMARK  205  A    between atoms: _479  and  _480
REMARK  206  A    between atoms: _479  and  _482
REMARK  207  A    between atoms: _483  and  _484
REMARK  208  A    between atoms: _487  and  _489
REMARK  209  A    between atoms: _489  and  _490
REMARK  210  A    between atoms: _489  and  _492
REMARK  211  A    between atoms: _492  and  _493
REMARK  212  A    between atoms: _493  and  _494
REMARK  213  A    between atoms: _494  and  _495
REMARK  214  A    between atoms: _504  and  _506
REMARK  215  A    between atoms: _506  and  _507
REMARK  216  A    between atoms: _510  and  _512
REMARK  217  A    between atoms: _512  and  _513
REMARK  218  A    between atoms: _512  and  _515
REMARK  219  A    between atoms: _515  and  _516
REMARK  220  A    between atoms: _519  and  _521
REMARK  221  A    between atoms: _521  and  _522
REMARK  222  A    between atoms: _521  and  _524
REMARK  223  A    between atoms: _524  and  _525
REMARK  224  A    between atoms: _528  and  _530
REMARK  225  A    between atoms: _530  and  _531
REMARK  226  A    between atoms: _530  and  _533
REMARK  227  A    between atoms: _533  and  _534
REMARK  228  A    between atoms: _537  and  _539
REMARK  229  A    between atoms: _539  and  _540
REMARK  230  A    between atoms: _539  and  _542
REMARK  231  A    between atoms: _542  and  _543
REMARK  232  A    between atoms: _543  and  _544
REMARK  233  A    between atoms: _544  and  _545
REMARK  234  A    between atoms: _545  and  _546
REMARK  235  A    between atoms: _550  and  _552
REMARK  236  A    between atoms: _552  and  _553
REMARK  237  A    between atoms: _552  and  _555
REMARK  238  A    between atoms: _555  and  _556
REMARK  239  A    between atoms: _556  and  _557
REMARK  240  A    between atoms: _560  and  _561
REMARK  241  A    between atoms: _566  and  _568
REMARK  242  A    between atoms: _568  and  _569
REMARK  243  A    between atoms: _568  and  _571
REMARK  244  A    between atoms: _571  and  _572
REMARK  245  A    between atoms: _575  and  _577
REMARK  246  A    between atoms: _577  and  _578
REMARK  247  A    between atoms: _577  and  _580
REMARK  248  A    between atoms: _580  and  _581
REMARK  249  A    between atoms: _581  and  _582
REMARK  250  A    between atoms: _582  and  _583
REMARK  251  A    between atoms: _592  and  _594
REMARK  252  A    between atoms: _594  and  _595
REMARK  253  A    between atoms: _594  and  _597
REMARK  254  A    between atoms: _597  and  _598
REMARK  255  A    between atoms: _598  and  _599
REMARK  256  A    between atoms: _601  and  _603
REMARK  257  A    between atoms: _603  and  _604
REMARK  258  A    between atoms: _603  and  _606
REMARK  259  A    between atoms: _606  and  _607
REMARK                            x       y       z     vdW  Elec       q    Type
REMARK                         _______ _______ _______ _____ _____    ______ ____
ROOT
ATOM      1  CA  ARG A   5      47.351  10.368  77.496  0.00  0.00    +0.149 C 
ENDROOT
BRANCH   1   2
ATOM      2  C   ARG A   5      47.748  11.829  77.616  0.00  0.00    +0.241 C 
ATOM      3  N   ALA A   6      48.084  12.261  78.828  0.00  0.00    -0.297 N 
ATOM      4  H   ALA A   6      48.034  11.608  79.636  0.00  0.00    +0.150 HD
ATOM      5  O   ARG A   5      47.779  12.589  76.632  0.00  0.00    -0.273 OA
BRANCH   3   6
ATOM      6  CA  ALA A   6      48.518  13.623  79.040  0.00  0.00    +0.149 C 
ATOM      7  CB  ALA A   6      48.785  13.973  80.504  0.00  0.00    +0.031 C 
BRANCH   6   8
ATOM      8  C   ALA A   6      49.769  13.904  78.192  0.00  0.00    +0.241 C 
ATOM      9  N   ILE A   7      50.667  12.960  78.083  0.00  0.00    -0.297 N 
ATOM     10  H   ILE A   7      50.546  12.057  78.585  0.00  0.00    +0.150 HD
ATOM     11  O   ALA A   6      49.862  15.010  77.654  0.00  0.00    -0.273 OA
BRANCH   9  12
ATOM     12  CA  ILE A   7      51.841  13.191  77.248  0.00  0.00    +0.149 C 
BRANCH  12  13
ATOM     13  C   ILE A   7      51.475  13.412  75.796  0.00  0.00    +0.241 C 
ATOM     14  N   THR A   8      50.548  12.624  75.270  0.00  0.00    -0.295 N 
ATOM     15  H   THR A   8      50.090  11.878  75.831  0.00  0.00    +0.150 HD
ATOM     16  O   ILE A   7      52.030  14.281  75.081  0.00  0.00    -0.273 OA
BRANCH  14  17
ATOM     17  CA  THR A   8      50.190  12.850  73.848  0.00  0.00    +0.176 C 
BRANCH  17  18
ATOM     18  C   THR A   8      49.336  14.087  73.633  0.00  0.00    +0.243 C 
ATOM     19  N   LEU A   9      48.468  14.408  74.598  0.00  0.00    -0.297 N 
ATOM     20  H   LEU A   9      48.390  13.786  75.428  0.00  0.00    +0.150 HD
ATOM     21  O   THR A   8      49.433  14.829  72.636  0.00  0.00    -0.273 OA
BRANCH  19  22
ATOM     22  CA  LEU A   9      47.616  15.612  74.530  0.00  0.00    +0.149 C 
BRANCH  22  23
ATOM     23  C   LEU A   9      48.451  16.875  74.473  0.00  0.00    +0.241 C 
ATOM     24  N   LYS A  10      49.584  16.812  75.192  0.00  0.00    -0.298 N 
ATOM     25  H   LYS A  10      49.838  15.940  75.699  0.00  0.00    +0.150 HD
ATOM     26  O   LEU A   9      48.137  17.875  73.825  0.00  0.00    -0.273 OA
BRANCH  24  27
ATOM     27  CA  LYS A  10      50.451  17.977  75.253  0.00  0.00    +0.137 C 
BRANCH  27  28
ATOM     28  C   LYS A  10      50.916  18.380  73.857  0.00  0.00    +0.227 C 
ATOM     29  O   LYS A  10      51.185  19.566  73.642  0.00  0.00    -0.286 OA
ENDBRANCH  27  28
BRANCH  27  30
ATOM     30  CB  LYS A  10      51.671  17.722  76.126  0.00  0.00    +0.028 C 
BRANCH  30  31
ATOM     31  CG  LYS A  10      51.327  17.430  77.578  0.00  0.00    -0.000 C 
BRANCH  31  32
ATOM     32  CD  LYS A  10      52.595  16.860  78.205  0.00  0.00    -0.024 C 
BRANCH  32  33
ATOM     33  CE  LYS A  10      52.376  16.653  79.689  0.00  0.00    -0.086 C 
BRANCH  33  34
ATOM     34  NZ  LYS A  10      51.622  15.410  79.989  0.00  0.00    +0.380 N 
ATOM     35  HZ1 LYS A  10      51.501  15.319  81.018  0.00  0.00    -0.089 HD
ATOM     36  HZ2 LYS A  10      52.149  14.590  79.627  0.00  0.00    -0.089 HD
ATOM     37  HZ3 LYS A  10      50.689  15.453  79.532  0.00  0.00    -0.089 HD
ENDBRANCH  33  34
ENDBRANCH  32  33
ENDBRANCH  31  32
ENDBRANCH  30  31
ENDBRANCH  27  30
ENDBRANCH  24  27
ENDBRANCH  22  23
BRANCH  22  38
ATOM     38  CB  LEU A   9      46.670  15.509  75.692  0.00  0.00    +0.029 C 
BRANCH  38  39
ATOM     39  CG  LEU A   9      45.542  16.449  75.929  0.00  0.00    +0.002 C 
ATOM     40  CD2 LEU A   9      44.760  15.963  77.151  0.00  0.00    +0.000 C 
ATOM     41  CD1 LEU A   9      44.685  16.524  74.679  0.00  0.00    +0.000 C 
ENDBRANCH  38  39
ENDBRANCH  22  38
ENDBRANCH  19  22
ENDBRANCH  17  18
BRANCH  17  42
ATOM     42  CB  THR A   8      49.530  11.563  73.275  0.00  0.00    +0.137 C 
ATOM     43  CG2 THR A   8      50.510  10.405  73.343  0.00  0.00    +0.034 C 
BRANCH  42  44
ATOM     44  OG1 THR A   8      48.372  11.202  74.025  0.00  0.00    -0.382 OA
ATOM     45  HG1 THR A   8      47.973  10.382  73.640  0.00  0.00    +0.210 HD
ENDBRANCH  42  44
ENDBRANCH  17  42
ENDBRANCH  14  17
ENDBRANCH  12  13
BRANCH  12  46
ATOM     46  CB  ILE A   7      52.823  11.998  77.344  0.00  0.00    +0.027 C 
ATOM     47  CG2 ILE A   7      53.845  12.075  76.236  0.00  0.00    +0.002 C 
BRANCH  46  48
ATOM     48  CG1 ILE A   7      53.465  11.885  78.738  0.00  0.00    +0.002 C 
ATOM     49  CD1 ILE A   7      54.306  10.650  78.953  0.00  0.00    +0.000 C 
ENDBRANCH  46  48
ENDBRANCH  12  46
ENDBRANCH   9  12
ENDBRANCH   6   8
ENDBRANCH   3   6
ENDBRANCH   1   2
BRANCH   1  51
ATOM     50  C   GLU A   4      49.454   9.387  78.207  0.00  0.00    +0.245 C 
ATOM     51  N   ARG A   5      48.142   9.526  78.390  0.00  0.00    -0.297 N 
ATOM     52  H   ARG A   5      47.676   9.030  79.177  0.00  0.00    +0.150 HD
ATOM     53  O   GLU A   4      50.032   9.946  77.265  0.00  0.00    -0.273 OA
BRANCH  50  54
ATOM     54  CA  GLU A   4      50.189   8.527  79.221  0.00  0.00    +0.172 C 
BRANCH  54  57
ATOM     55  C   ALA A   3      49.830   9.978  81.133  0.00  0.00    +0.241 C 
ATOM     56  O   ALA A   3      50.423  10.924  80.606  0.00  0.00    -0.273 OA
ATOM     57  N   GLU A   4      49.681   8.768  80.577  0.00  0.00    -0.294 N 
ATOM     58  H   GLU A   4      49.209   8.005  81.103  0.00  0.00    +0.150 HD
BRANCH  55  59
ATOM     59  CA  ALA A   3      49.198  10.156  82.510  0.00  0.00    +0.149 C 
ATOM     60  CB  ALA A   3      50.137   9.630  83.607  0.00  0.00    +0.031 C 
BRANCH  59  62
ATOM     61  C   GLY A   2      46.914   9.843  81.858  0.00  0.00    +0.243 C 
ATOM     62  N   ALA A   3      47.916   9.493  82.624  0.00  0.00    -0.297 N 
ATOM     63  H   ALA A   3      47.790   8.732  83.321  0.00  0.00    +0.150 HD
ATOM     64  O   GLY A   2      46.953  10.812  81.105  0.00  0.00    -0.273 OA
BRANCH  61  65
ATOM     65  CA  GLY A   2      45.663   8.999  81.900  0.00  0.00    +0.176 C 
BRANCH  65  67
ATOM     66  C   LYS A   1      46.573   6.953  80.980  0.00  0.00    +0.238 C 
ATOM     67  N   GLY A   2      45.944   7.556  81.981  0.00  0.00    -0.296 N 
ATOM     68  H   GLY A   2      45.651   7.012  82.818  0.00  0.00    +0.150 HD
ATOM     69  O   LYS A   1      46.909   7.580  79.971  0.00  0.00    -0.274 OA
BRANCH  66  70
ATOM     70  CA  LYS A   1      46.873   5.477  81.186  0.00  0.00    +0.145 C 
BRANCH  70  71
ATOM     71  N   LYS A   1      47.185   5.153  82.592  0.00  0.00    -0.238 NA
ATOM     72  H   LYS A   1      46.567   4.505  83.120  0.00  0.00    +0.142 HD
ENDBRANCH  70  71
BRANCH  70  73
ATOM     73  CB  LYS A   1      45.707   4.598  80.722  0.00  0.00    +0.026 C 
BRANCH  73  74
ATOM     74  CG  LYS A   1      46.090   3.110  80.558  0.00  0.00    -0.000 C 
BRANCH  74  75
ATOM     75  CD  LYS A   1      44.887   2.228  80.272  0.00  0.00    -0.024 C 
BRANCH  75  76
ATOM     76  CE  LYS A   1      45.180   0.795  79.946  0.00  0.00    -0.086 C 
BRANCH  76  77
ATOM     77  NZ  LYS A   1      46.005   0.733  78.705  0.00  0.00    +0.380 N 
ATOM     78  HZ1 LYS A   1      46.897   1.246  78.857  0.00  0.00    -0.089 HD
ATOM     79  HZ2 LYS A   1      46.210  -0.260  78.476  0.00  0.00    -0.089 HD
ATOM     80  HZ3 LYS A   1      45.481   1.170  77.920  0.00  0.00    -0.089 HD
ENDBRANCH  76  77
ENDBRANCH  75  76
ENDBRANCH  74  75
ENDBRANCH  73  74
ENDBRANCH  70  73
ENDBRANCH  66  70
ENDBRANCH  65  67
ENDBRANCH  61  65
ENDBRANCH  59  62
ENDBRANCH  55  59
ENDBRANCH  54  57
BRANCH  54  81
ATOM     81  CB  GLU A   4      50.092   7.057  78.880  0.00  0.00    +0.009 C 
ATOM     82  CG  GLU A   4      50.796   6.105  79.781  0.00  0.00    +0.084 C 
BRANCH  82  83
ATOM     83  CD  GLU A   4      50.709   4.642  79.445  0.00  0.00    +0.388 C 
ATOM     84  OE2 GLU A   4      51.782   3.998  79.568  0.00  0.00    -0.241 OA
ATOM     85  OE1 GLU A   4      49.663   4.068  79.096  0.00  0.00    -0.241 OA
ENDBRANCH  82  83
ENDBRANCH  54  81
ENDBRANCH  50  54
ENDBRANCH   1  51
BRANCH   1  86
ATOM     86  CB  ARG A   5      45.871  10.159  77.788  0.00  0.00    +0.033 C 
BRANCH  86  87
ATOM     87  CG  ARG A   5      44.976  11.114  76.988  0.00  0.00    +0.045 C 
BRANCH  87  88
ATOM     88  CD  ARG A   5      45.135  10.974  75.515  0.00  0.00    +0.174 C 
BRANCH  88  89
ATOM     89  NE  ARG A   5      44.291  11.923  74.776  0.00  0.00    -0.265 N 
ATOM     90  HE  ARG A   5      43.347  12.123  75.164  0.00  0.00    +0.259 HD
ATOM     91  CZ  ARG A   5      44.635  12.550  73.648  0.00  0.00    +0.342 C 
ATOM     92  NH2 ARG A   5      45.823  12.413  73.073  0.00  0.00    -0.292 N 
ATOM     93 HH21 ARG A   5      46.540  11.793  73.501  0.00  0.00    +0.255 HD
ATOM     94 HH22 ARG A   5      46.037  12.926  72.194  0.00  0.00    +0.255 HD
ATOM     95  NH1 ARG A   5      43.781  13.383  73.048  0.00  0.00    -0.292 N 
ATOM     96 HH11 ARG A   5      42.840  13.548  73.459  0.00  0.00    +0.255 HD
ATOM     97 HH12 ARG A   5      44.057  13.867  72.170  0.00  0.00    +0.255 HD
ENDBRANCH  88  89
ENDBRANCH  87  88
ENDBRANCH  86  87
ENDBRANCH   1  86
TORSDOF 42
REMARK  Name = ../refined-set-2016/1fcz/1fcz_pocket.pdb
REMARK  259 active torsions:
REMARK  status: ('A' for Active; 'I' for Inactive)
REMARK    1  A    between atoms: _1  and  _3
REMARK    2  A    between atoms: _3  and  _4
REMARK    3  A    between atoms: _3  and  _6
REMARK    4  A    between atoms: _6  and  _7
REMARK    5  A    between atoms: _10  and  _12
REMARK    6  A    between atoms: _12  and  _13
REMARK    7  A    between atoms: _12  and  _15
REMARK    8  A    between atoms: _15  and  _16
REMARK    9  A    between atoms: _23  and  _24
REMARK   10  A    between atoms: _29  and  _31
REMARK   11  A    between atoms: _31  and  _32
REMARK   12  A    between atoms: _31  and  _34
REMARK   13  A    between atoms: _34  and  _35
REMARK   14  A    between atoms: _38  and  _40
REMARK   15  A    between atoms: _40  and  _41
REMARK   16  A    between atoms: _40  and  _43
REMARK   17  A    between atoms: _43  and  _44
REMARK   18  A    between atoms: _54  and  _56
REMARK   19  A    between atoms: _56  and  _57
REMARK   20  A    between atoms: _56  and  _59
REMARK   21  A    between atoms: _59  and  _60
REMARK   22  A    between atoms: _60  and  _61
REMARK   23  A    between atoms: _61  and  _62
REMARK   24  A    between atoms: _62  and  _63
REMARK   25  A    between atoms: _67  and  _69
REMARK   26  A    between atoms: _69  and  _70
REMARK   27  A    between atoms: _69  and  _72
REMARK   28  A    between atoms: _72  and  _73
REMARK   29  A    between atoms: _79  and  _81
REMARK   30  A    between atoms: _81  and  _82
REMARK   31  A    between atoms: _81  and  _84
REMARK   32  A    between atoms: _84  and  _85
REMARK   33  A    between atoms: _87  and  _89
REMARK   34  A    between atoms: _89  and  _90
REMARK   35  A    between atoms: _89  and  _92
REMARK   36  A    between atoms: _92  and  _93
REMARK   37  A    between atoms: _93  and  _94
REMARK   38  A    between atoms: _97  and  _99
REMARK   39  A    between atoms: _99  and  _100
REMARK   40  A    between atoms: _99  and  _102
REMARK   41  A    between atoms: _102  and  _103
REMARK   42  A    between atoms: _106  and  _108
REMARK   43  A    between atoms: _108  and  _109
REMARK   44  A    between atoms: _112  and  _114
REMARK   45  A    between atoms: _114  and  _115
REMARK   46  A    between atoms: _114  and  _117
REMARK   47  A    between atoms: _117  and  _118
REMARK   48  A    between atoms: _121  and  _123
REMARK   49  A    between atoms: _123  and  _124
REMARK   50  A    between atoms: _123  and  _126
REMARK   51  A    between atoms: _126  and  _127
REMARK   52  A    between atoms: _127  and  _128
REMARK   53  A    between atoms: _128  and  _129
REMARK   54  A    between atoms: _129  and  _130
REMARK   55  A    between atoms: _134  and  _136
REMARK   56  A    between atoms: _136  and  _137
REMARK   57  A    between atoms: _136  and  _139
REMARK   58  A    between atoms: _141  and  _143
REMARK   59  A    between atoms: _143  and  _144
REMARK   60  A    between atoms: _143  and  _146
REMARK   61  A    between atoms: _146  and  _147
REMARK   62  A    between atoms: _150  and  _152
REMARK   63  A    between atoms: _152  and  _153
REMARK   64  A    between atoms: _152  and  _155
REMARK   65  A    between atoms: _155  and  _156
REMARK   66  A    between atoms: _156  and  _157
REMARK   67  A    between atoms: _157  and  _158
REMARK   68  A    between atoms: _158  and  _159
REMARK   69  A    between atoms: _163  and  _165
REMARK   70  A    between atoms: _165  and  _166
REMARK   71  A    between atoms: _165  and  _168
REMARK   72  A    between atoms: _168  and  _169
REMARK   73  A    between atoms: _172  and  _174
REMARK   74  A    between atoms: _174  and  _175
REMARK   75  A    between atoms: _174  and  _177
REMARK   76  A    between atoms: _179  and  _181
REMARK   77  A    between atoms: _181  and  _182
REMARK   78  A    between atoms: _181  and  _184
REMARK   79  A    between atoms: _184  and  _185
REMARK   80  A    between atoms: _188  and  _190
REMARK   81  A    between atoms: _190  and  _191
REMARK   82  A    between atoms: _190  and  _193
REMARK   83  A    between atoms: _193  and  _194
REMARK   84  A    between atoms: _197  and  _199
REMARK   85  A    between atoms: _199  and  _200
REMARK   86  A    between atoms: _199  and  _202
REMARK   87  A    between atoms: _202  and  _203
REMARK   88  A    between atoms: _206  and  _208
REMARK   89  A    between atoms: _208  and  _209
REMARK   90  A    between atoms: _208  and  _211
REMARK   91  A    between atoms: _211  and  _212
REMARK   92  A    between atoms: _215  and  _217
REMARK   93  A    between atoms: _217  and  _218
REMARK   94  A    between atoms: _217  and  _220
REMARK   95  A    between atoms: _220  and  _221
REMARK   96  A    between atoms: _221  and  _222
REMARK   97  A    between atoms: _224  and  _226
REMARK   98  A    between atoms: _226  and  _227
REMARK   99  A    between atoms: _226  and  _229
REMARK  100  A    between atoms: _229  and  _230
REMARK  101  A    between atoms: _233  and  _235
REMARK  102  A    between atoms: _235  and  _236
REMARK  103  A    between atoms: _235  and  _238
REMARK  104  A    between atoms: _238  and  _239
REMARK  105  A    between atoms: _239  and  _240
REMARK  106  A    between atoms: _240  and  _241
REMARK  107  A    between atoms: _250  and  _252
REMARK  108  A    between atoms: _252  and  _253
REMARK  109  A    between atoms: _252  and  _255
REMARK  110  A    between atoms: _255  and  _256
REMARK  111  A    between atoms: _259  and  _261
REMARK  112  A    between atoms: _261  and  _262
REMARK  113  A    between atoms: _261  and  _264
REMARK  114  A    between atoms: _266  and  _268
REMARK  115  A    between atoms: _268  and  _269
REMARK  116  A    between atoms: _268  and  _271
REMARK  117  A    between atoms: _271  and  _272
REMARK  118  A    between atoms: _275  and  _277
REMARK  119  A    between atoms: _277  and  _278
REMARK  120  A    between atoms: _277  and  _280
REMARK  121  A    between atoms: _280  and  _281
REMARK  122  A    between atoms: _281  and  _282
REMARK  123  A    between atoms: _282  and  _283
REMARK  124  A    between atoms: _292  and  _294
REMARK  125  A    between atoms: _294  and  _295
REMARK  126  A    between atoms: _294  and  _297
REMARK  127  A    between atoms: _297  and  _298
REMARK  128  A    between atoms: _298  and  _299
REMARK  129  A    between atoms: _301  and  _303
REMARK  130  A    between atoms: _303  and  _304
REMARK  131  A    between atoms: _303  and  _306
REMARK  132  A    between atoms: _306  and  _307
REMARK  133  A    between atoms: _310  and  _312
REMARK  134  A    between atoms: _312  and  _313
REMARK  135  A    between atoms: _312  and  _315
REMARK  136  A    between atoms: _315  and  _316
REMARK  137  A    between atoms: _322  and  _324
REMARK  138  A    between atoms: _324  and  _325
REMARK  139  A    between atoms: _324  and  _327
REMARK  140  A    between atoms: _327  and  _328
REMARK  141  A    between atoms: _330  and  _332
REMARK  142  A    between atoms: _332  and  _333
REMARK  143  A    between atoms: _332  and  _335
REMARK  144  A    between atoms: _335  and  _336
REMARK  145  A    between atoms: _339  and  _341
REMARK  146  A    between atoms: _341  and  _342
REMARK  147  A    between atoms: _344  and  _346
REMARK  148  A    between atoms: _346  and  _347
REMARK  149  A    between atoms: _346  and  _349
REMARK  150  A    between atoms: _349  and  _350
REMARK  151  A    between atoms: _353  and  _355
REMARK  152  A    between atoms: _355  and  _356
REMARK  153  A    between atoms: _355  and  _358
REMARK  154  A    between atoms: _358  and  _359
REMARK  155  A    between atoms: _359  and  _360
REMARK  156  A    between atoms: _362  and  _364
REMARK  157  A    between atoms: _364  and  _365
REMARK  158  A    between atoms: _364  and  _367
REMARK  159  A    between atoms: _367  and  _368
REMARK  160  A    between atoms: _373  and  _375
REMARK  161  A    between atoms: _375  and  _376
REMARK  162  A    between atoms: _379  and  _381
REMARK  163  A    between atoms: _381  and  _382
REMARK  164  A    between atoms: _384  and  _386
REMARK  165  A    between atoms: _386  and  _387
REMARK  166  A    between atoms: _386  and  _389
REMARK  167  A    between atoms: _389  and  _390
REMARK  168  A    between atoms: _396  and  _398
REMARK  169  A    between atoms: _398  and  _399
REMARK  170  A    between atoms: _401  and  _403
REMARK  171  A    between atoms: _403  and  _404
REMARK  172  A    between atoms: _403  and  _406
REMARK  173  A    between atoms: _406  and  _407
REMARK  174  A    between atoms: _410  and  _412
REMARK  175  A    between atoms: _412  and  _413
REMARK  176  A    between atoms: _412  and  _415
REMARK  177  A    between atoms: _415  and  _416
REMARK  178  A    between atoms: _419  and  _421
REMARK  179  A    between atoms: _421  and  _422
REMARK  180  A    between atoms: _421  and  _424
REMARK  181  A    between atoms: _427  and  _429
REMARK  182  A    between atoms: _429  and  _430
REMARK  183  A    between atoms: _429  and  _432
REMARK  184  A    between atoms: _432  and  _433
REMARK  185  A    between atoms: _436  and  _438
REMARK  186  A    between atoms: _438  and  _439
REMARK  187  A    between atoms: _438  and  _441
REMARK  188  A    between atoms: _441  and  _442
REMARK  189  A    between atoms: _445  and  _447
REMARK  190  A    between atoms: _447  and  _448
REMARK  191  A    between atoms: _447  and  _450
REMARK  192  A    between atoms: _450  and  _451
REMARK  193  A    between atoms: _453  and  _455
REMARK  194  A    between atoms: _455  and  _456
REMARK  195  A    between atoms: _455  and  _458
REMARK  196  A    between atoms: _458  and  _459
REMARK  197  A    between atoms: _459  and  _460
REMARK  198  A    between atoms: _460  and  _461
REMARK  199  A    between atoms: _461  and  _462
REMARK  200  A    between atoms: _466  and  _468
REMARK  201  A    between atoms: _468  and  _469
REMARK  202  A    between atoms: _471  and  _473
REMARK  203  A    between atoms: _473  and  _474
REMARK  204  A    between atoms: _477  and  _479
REMARK  205  A    between atoms: _479  and  _480
REMARK  206  A    between atoms: _479  and  _482
REMARK  207  A    between atoms: _483  and  _484
REMARK  208  A    between atoms: _487  and  _489
REMARK  209  A    between atoms: _489  and  _490
REMARK  210  A    between atoms: _489  and  _492
REMARK  211  A    between atoms: _492  and  _493
REMARK  212  A    between atoms: _493  and  _494
REMARK  213  A    between atoms: _494  and  _495
REMARK  214  A    between atoms: _504  and  _506
REMARK  215  A    between atoms: _506  and  _507
REMARK  216  A    between atoms: _510  and  _512
REMARK  217  A    between atoms: _512  and  _513
REMARK  218  A    between atoms: _512  and  _515
REMARK  219  A    between atoms: _515  and  _516
REMARK  220  A    between atoms: _519  and  _521
REMARK  221  A    between atoms: _521  and  _522
REMARK  222  A    between atoms: _521  and  _524
REMARK  223  A    between atoms: _524  and  _525
REMARK  224  A    between atoms: _528  and  _530
REMARK  225  A    between atoms: _530  and  _531
REMARK  226  A    between atoms: _530  and  _533
REMARK  227  A    between atoms: _533  and  _534
REMARK  228  A    between atoms: _537  and  _539
REMARK  229  A    between atoms: _539  and  _540
REMARK  230  A    between atoms: _539  and  _542
REMARK  231  A    between atoms: _542  and  _543
REMARK  232  A    between atoms: _543  and  _544
REMARK  233  A    between atoms: _544  and  _545
REMARK  234  A    between atoms: _545  and  _546
REMARK  235  A    between atoms: _550  and  _552
REMARK  236  A    between atoms: _552  and  _553
REMARK  237  A    between atoms: _552  and  _555
REMARK  238  A    between atoms: _555  and  _556
REMARK  239  A    between atoms: _556  and  _557
REMARK  240  A    between atoms: _560  and  _561
REMARK  241  A    between atoms: _566  and  _568
REMARK  242  A    between atoms: _568  and  _569
REMARK  243  A    between atoms: _568  and  _571
REMARK  244  A    between atoms: _571  and  _572
REMARK  245  A    between atoms: _575  and  _577
REMARK  246  A    between atoms: _577  and  _578
REMARK  247  A    between atoms: _577  and  _580
REMARK  248  A    between atoms: _580  and  _581
REMARK  249  A    between atoms: _581  and  _582
REMARK  250  A    between atoms: _582  and  _583
REMARK  251  A    between atoms: _592  and  _594
REMARK  252  A    between atoms: _594  and  _595
REMARK  253  A    between atoms: _594  and  _597
REMARK  254  A    between atoms: _597  and  _598
REMARK  255  A    between atoms: _598  and  _599
REMARK  256  A    between atoms: _601  and  _603
REMARK  257  A    between atoms: _603  and  _604
REMARK  258  A    between atoms: _603  and  _606
REMARK  259  A    between atoms: _606  and  _607
REMARK                            x       y       z     vdW  Elec       q    Type
REMARK                         _______ _______ _______ _____ _____    ______ ____
ROOT
ATOM      1  C   MET A   1      48.710  23.525  81.595  0.00  0.00    +0.241 C 
ATOM      2  N   PRO A   2      47.523  23.746  82.185  0.00  0.00    -0.273 N 
ATOM      3  CA  PRO A   2      47.488  24.595  83.387  0.00  0.00    +0.140 C 
ATOM      4  CB  PRO A   2      46.030  24.450  83.836  0.00  0.00    +0.030 C 
ATOM      5  CG  PRO A   2      45.300  24.225  82.524  0.00  0.00    +0.024 C 
ATOM      6  CD  PRO A   2      46.189  23.366  81.717  0.00  0.00    +0.094 C 
ATOM      7  O   MET A   1      49.747  24.058  81.968  0.00  0.00    -0.273 OA
ENDROOT
BRANCH   3   8
ATOM      8  C   PRO A   2      48.460  24.119  84.456  0.00  0.00    +0.227 C 
ATOM      9  O   PRO A   2      48.748  22.931  84.614  0.00  0.00    -0.286 OA
ENDBRANCH   3   8
BRANCH   1  10
ATOM     10  CA  MET A   1      48.692  22.591  80.391  0.00  0.00    +0.146 C 
BRANCH  10  11
ATOM     11  N   MET A   1      49.843  22.885  79.558  0.00  0.00    -0.238 NA
ATOM     12  H   MET A   1      50.628  22.206  79.487  0.00  0.00    +0.142 HD
ENDBRANCH  10  11
BRANCH  10  13
ATOM     13  CB  MET A   1      48.694  21.154  80.856  0.00  0.00    +0.038 C 
BRANCH  13  14
ATOM     14  CG  MET A   1      48.404  20.158  79.724  0.00  0.00    +0.060 C 
BRANCH  14  15
ATOM     15  SD  MET A   1      48.197  18.495  80.338  0.00  0.00    -0.139 S 
ATOM     16  CE  MET A   1      47.706  17.683  78.826  0.00  0.00    +0.069 C 
ENDBRANCH  14  15
ENDBRANCH  13  14
ENDBRANCH  10  13
ENDBRANCH   1  10
TORSDOF 6
REMARK  Name = ../refined-set-2016/1fcz/1fcz_pocket.pdb
REMARK  259 active torsions:
REMARK  status: ('A' for Active; 'I' for Inactive)
REMARK    1  A    between atoms: _1  and  _3
REMARK    2  A    between atoms: _3  and  _4
REMARK    3  A    between atoms: _3  and  _6
REMARK    4  A    between atoms: _6  and  _7
REMARK    5  A    between atoms: _10  and  _12
REMARK    6  A    between atoms: _12  and  _13
REMARK    7  A    between atoms: _12  and  _15
REMARK    8  A    between atoms: _15  and  _16
REMARK    9  A    between atoms: _23  and  _24
REMARK   10  A    between atoms: _29  and  _31
REMARK   11  A    between atoms: _31  and  _32
REMARK   12  A    between atoms: _31  and  _34
REMARK   13  A    between atoms: _34  and  _35
REMARK   14  A    between atoms: _38  and  _40
REMARK   15  A    between atoms: _40  and  _41
REMARK   16  A    between atoms: _40  and  _43
REMARK   17  A    between atoms: _43  and  _44
REMARK   18  A    between atoms: _54  and  _56
REMARK   19  A    between atoms: _56  and  _57
REMARK   20  A    between atoms: _56  and  _59
REMARK   21  A    between atoms: _59  and  _60
REMARK   22  A    between atoms: _60  and  _61
REMARK   23  A    between atoms: _61  and  _62
REMARK   24  A    between atoms: _62  and  _63
REMARK   25  A    between atoms: _67  and  _69
REMARK   26  A    between atoms: _69  and  _70
REMARK   27  A    between atoms: _69  and  _72
REMARK   28  A    between atoms: _72  and  _73
REMARK   29  A    between atoms: _79  and  _81
REMARK   30  A    between atoms: _81  and  _82
REMARK   31  A    between atoms: _81  and  _84
REMARK   32  A    between atoms: _84  and  _85
REMARK   33  A    between atoms: _87  and  _89
REMARK   34  A    between atoms: _89  and  _90
REMARK   35  A    between atoms: _89  and  _92
REMARK   36  A    between atoms: _92  and  _93
REMARK   37  A    between atoms: _93  and  _94
REMARK   38  A    between atoms: _97  and  _99
REMARK   39  A    between atoms: _99  and  _100
REMARK   40  A    between atoms: _99  and  _102
REMARK   41  A    between atoms: _102  and  _103
REMARK   42  A    between atoms: _106  and  _108
REMARK   43  A    between atoms: _108  and  _109
REMARK   44  A    between atoms: _112  and  _114
REMARK   45  A    between atoms: _114  and  _115
REMARK   46  A    between atoms: _114  and  _117
REMARK   47  A    between atoms: _117  and  _118
REMARK   48  A    between atoms: _121  and  _123
REMARK   49  A    between atoms: _123  and  _124
REMARK   50  A    between atoms: _123  and  _126
REMARK   51  A    between atoms: _126  and  _127
REMARK   52  A    between atoms: _127  and  _128
REMARK   53  A    between atoms: _128  and  _129
REMARK   54  A    between atoms: _129  and  _130
REMARK   55  A    between atoms: _134  and  _136
REMARK   56  A    between atoms: _136  and  _137
REMARK   57  A    between atoms: _136  and  _139
REMARK   58  A    between atoms: _141  and  _143
REMARK   59  A    between atoms: _143  and  _144
REMARK   60  A    between atoms: _143  and  _146
REMARK   61  A    between atoms: _146  and  _147
REMARK   62  A    between atoms: _150  and  _152
REMARK   63  A    between atoms: _152  and  _153
REMARK   64  A    between atoms: _152  and  _155
REMARK   65  A    between atoms: _155  and  _156
REMARK   66  A    between atoms: _156  and  _157
REMARK   67  A    between atoms: _157  and  _158
REMARK   68  A    between atoms: _158  and  _159
REMARK   69  A    between atoms: _163  and  _165
REMARK   70  A    between atoms: _165  and  _166
REMARK   71  A    between atoms: _165  and  _168
REMARK   72  A    between atoms: _168  and  _169
REMARK   73  A    between atoms: _172  and  _174
REMARK   74  A    between atoms: _174  and  _175
REMARK   75  A    between atoms: _174  and  _177
REMARK   76  A    between atoms: _179  and  _181
REMARK   77  A    between atoms: _181  and  _182
REMARK   78  A    between atoms: _181  and  _184
REMARK   79  A    between atoms: _184  and  _185
REMARK   80  A    between atoms: _188  and  _190
REMARK   81  A    between atoms: _190  and  _191
REMARK   82  A    between atoms: _190  and  _193
REMARK   83  A    between atoms: _193  and  _194
REMARK   84  A    between atoms: _197  and  _199
REMARK   85  A    between atoms: _199  and  _200
REMARK   86  A    between atoms: _199  and  _202
REMARK   87  A    between atoms: _202  and  _203
REMARK   88  A    between atoms: _206  and  _208
REMARK   89  A    between atoms: _208  and  _209
REMARK   90  A    between atoms: _208  and  _211
REMARK   91  A    between atoms: _211  and  _212
REMARK   92  A    between atoms: _215  and  _217
REMARK   93  A    between atoms: _217  and  _218
REMARK   94  A    between atoms: _217  and  _220
REMARK   95  A    between atoms: _220  and  _221
REMARK   96  A    between atoms: _221  and  _222
REMARK   97  A    between atoms: _224  and  _226
REMARK   98  A    between atoms: _226  and  _227
REMARK   99  A    between atoms: _226  and  _229
REMARK  100  A    between atoms: _229  and  _230
REMARK  101  A    between atoms: _233  and  _235
REMARK  102  A    between atoms: _235  and  _236
REMARK  103  A    between atoms: _235  and  _238
REMARK  104  A    between atoms: _238  and  _239
REMARK  105  A    between atoms: _239  and  _240
REMARK  106  A    between atoms: _240  and  _241
REMARK  107  A    between atoms: _250  and  _252
REMARK  108  A    between atoms: _252  and  _253
REMARK  109  A    between atoms: _252  and  _255
REMARK  110  A    between atoms: _255  and  _256
REMARK  111  A    between atoms: _259  and  _261
REMARK  112  A    between atoms: _261  and  _262
REMARK  113  A    between atoms: _261  and  _264
REMARK  114  A    between atoms: _266  and  _268
REMARK  115  A    between atoms: _268  and  _269
REMARK  116  A    between atoms: _268  and  _271
REMARK  117  A    between atoms: _271  and  _272
REMARK  118  A    between atoms: _275  and  _277
REMARK  119  A    between atoms: _277  and  _278
REMARK  120  A    between atoms: _277  and  _280
REMARK  121  A    between atoms: _280  and  _281
REMARK  122  A    between atoms: _281  and  _282
REMARK  123  A    between atoms: _282  and  _283
REMARK  124  A    between atoms: _292  and  _294
REMARK  125  A    between atoms: _294  and  _295
REMARK  126  A    between atoms: _294  and  _297
REMARK  127  A    between atoms: _297  and  _298
REMARK  128  A    between atoms: _298  and  _299
REMARK  129  A    between atoms: _301  and  _303
REMARK  130  A    between atoms: _303  and  _304
REMARK  131  A    between atoms: _303  and  _306
REMARK  132  A    between atoms: _306  and  _307
REMARK  133  A    between atoms: _310  and  _312
REMARK  134  A    between atoms: _312  and  _313
REMARK  135  A    between atoms: _312  and  _315
REMARK  136  A    between atoms: _315  and  _316
REMARK  137  A    between atoms: _322  and  _324
REMARK  138  A    between atoms: _324  and  _325
REMARK  139  A    between atoms: _324  and  _327
REMARK  140  A    between atoms: _327  and  _328
REMARK  141  A    between atoms: _330  and  _332
REMARK  142  A    between atoms: _332  and  _333
REMARK  143  A    between atoms: _332  and  _335
REMARK  144  A    between atoms: _335  and  _336
REMARK  145  A    between atoms: _339  and  _341
REMARK  146  A    between atoms: _341  and  _342
REMARK  147  A    between atoms: _344  and  _346
REMARK  148  A    between atoms: _346  and  _347
REMARK  149  A    between atoms: _346  and  _349
REMARK  150  A    between atoms: _349  and  _350
REMARK  151  A    between atoms: _353  and  _355
REMARK  152  A    between atoms: _355  and  _356
REMARK  153  A    between atoms: _355  and  _358
REMARK  154  A    between atoms: _358  and  _359
REMARK  155  A    between atoms: _359  and  _360
REMARK  156  A    between atoms: _362  and  _364
REMARK  157  A    between atoms: _364  and  _365
REMARK  158  A    between atoms: _364  and  _367
REMARK  159  A    between atoms: _367  and  _368
REMARK  160  A    between atoms: _373  and  _375
REMARK  161  A    between atoms: _375  and  _376
REMARK  162  A    between atoms: _379  and  _381
REMARK  163  A    between atoms: _381  and  _382
REMARK  164  A    between atoms: _384  and  _386
REMARK  165  A    between atoms: _386  and  _387
REMARK  166  A    between atoms: _386  and  _389
REMARK  167  A    between atoms: _389  and  _390
REMARK  168  A    between atoms: _396  and  _398
REMARK  169  A    between atoms: _398  and  _399
REMARK  170  A    between atoms: _401  and  _403
REMARK  171  A    between atoms: _403  and  _404
REMARK  172  A    between atoms: _403  and  _406
REMARK  173  A    between atoms: _406  and  _407
REMARK  174  A    between atoms: _410  and  _412
REMARK  175  A    between atoms: _412  and  _413
REMARK  176  A    between atoms: _412  and  _415
REMARK  177  A    between atoms: _415  and  _416
REMARK  178  A    between atoms: _419  and  _421
REMARK  179  A    between atoms: _421  and  _422
REMARK  180  A    between atoms: _421  and  _424
REMARK  181  A    between atoms: _427  and  _429
REMARK  182  A    between atoms: _429  and  _430
REMARK  183  A    between atoms: _429  and  _432
REMARK  184  A    between atoms: _432  and  _433
REMARK  185  A    between atoms: _436  and  _438
REMARK  186  A    between atoms: _438  and  _439
REMARK  187  A    between atoms: _438  and  _441
REMARK  188  A    between atoms: _441  and  _442
REMARK  189  A    between atoms: _445  and  _447
REMARK  190  A    between atoms: _447  and  _448
REMARK  191  A    between atoms: _447  and  _450
REMARK  192  A    between atoms: _450  and  _451
REMARK  193  A    between atoms: _453  and  _455
REMARK  194  A    between atoms: _455  and  _456
REMARK  195  A    between atoms: _455  and  _458
REMARK  196  A    between atoms: _458  and  _459
REMARK  197  A    between atoms: _459  and  _460
REMARK  198  A    between atoms: _460  and  _461
REMARK  199  A    between atoms: _461  and  _462
REMARK  200  A    between atoms: _466  and  _468
REMARK  201  A    between atoms: _468  and  _469
REMARK  202  A    between atoms: _471  and  _473
REMARK  203  A    between atoms: _473  and  _474
REMARK  204  A    between atoms: _477  and  _479
REMARK  205  A    between atoms: _479  and  _480
REMARK  206  A    between atoms: _479  and  _482
REMARK  207  A    between atoms: _483  and  _484
REMARK  208  A    between atoms: _487  and  _489
REMARK  209  A    between atoms: _489  and  _490
REMARK  210  A    between atoms: _489  and  _492
REMARK  211  A    between atoms: _492  and  _493
REMARK  212  A    between atoms: _493  and  _494
REMARK  213  A    between atoms: _494  and  _495
REMARK  214  A    between atoms: _504  and  _506
REMARK  215  A    between atoms: _506  and  _507
REMARK  216  A    between atoms: _510  and  _512
REMARK  217  A    between atoms: _512  and  _513
REMARK  218  A    between atoms: _512  and  _515
REMARK  219  A    between atoms: _515  and  _516
REMARK  220  A    between atoms: _519  and  _521
REMARK  221  A    between atoms: _521  and  _522
REMARK  222  A    between atoms: _521  and  _524
REMARK  223  A    between atoms: _524  and  _525
REMARK  224  A    between atoms: _528  and  _530
REMARK  225  A    between atoms: _530  and  _531
REMARK  226  A    between atoms: _530  and  _533
REMARK  227  A    between atoms: _533  and  _534
REMARK  228  A    between atoms: _537  and  _539
REMARK  229  A    between atoms: _539  and  _540
REMARK  230  A    between atoms: _539  and  _542
REMARK  231  A    between atoms: _542  and  _543
REMARK  232  A    between atoms: _543  and  _544
REMARK  233  A    between atoms: _544  and  _545
REMARK  234  A    between atoms: _545  and  _546
REMARK  235  A    between atoms: _550  and  _552
REMARK  236  A    between atoms: _552  and  _553
REMARK  237  A    between atoms: _552  and  _555
REMARK  238  A    between atoms: _555  and  _556
REMARK  239  A    between atoms: _556  and  _557
REMARK  240  A    between atoms: _560  and  _561
REMARK  241  A    between atoms: _566  and  _568
REMARK  242  A    between atoms: _568  and  _569
REMARK  243  A    between atoms: _568  and  _571
REMARK  244  A    between atoms: _571  and  _572
REMARK  245  A    between atoms: _575  and  _577
REMARK  246  A    between atoms: _577  and  _578
REMARK  247  A    between atoms: _577  and  _580
REMARK  248  A    between atoms: _580  and  _581
REMARK  249  A    between atoms: _581  and  _582
REMARK  250  A    between atoms: _582  and  _583
REMARK  251  A    between atoms: _592  and  _594
REMARK  252  A    between atoms: _594  and  _595
REMARK  253  A    between atoms: _594  and  _597
REMARK  254  A    between atoms: _597  and  _598
REMARK  255  A    between atoms: _598  and  _599
REMARK  256  A    between atoms: _601  and  _603
REMARK  257  A    between atoms: _603  and  _604
REMARK  258  A    between atoms: _603  and  _606
REMARK  259  A    between atoms: _606  and  _607
REMARK                            x       y       z     vdW  Elec       q    Type
REMARK                         _______ _______ _______ _____ _____    ______ ____
ROOT
ATOM      1  CA  ARG A   2      51.518  20.054  85.505  0.00  0.00    +0.137 C 
ENDROOT
BRANCH   1   4
ATOM      2  C   ILE A   1      49.177  19.526  86.016  0.00  0.00    +0.238 C 
ATOM      3  O   ILE A   1      49.481  18.329  86.235  0.00  0.00    -0.274 OA
ATOM      4  N   ARG A   2      50.090  20.443  85.660  0.00  0.00    -0.298 N 
ATOM      5  H   ARG A   2      49.799  21.427  85.492  0.00  0.00    +0.150 HD
BRANCH   2   6
ATOM      6  CA  ILE A   1      47.729  19.978  86.206  0.00  0.00    +0.145 C 
BRANCH   6   7
ATOM      7  N   ILE A   1      47.713  21.251  86.921  0.00  0.00    -0.238 NA
ATOM      8  H   ILE A   1      47.358  22.098  86.433  0.00  0.00    +0.142 HD
ENDBRANCH   6   7
BRANCH   6   9
ATOM      9  CB  ILE A   1      46.928  20.080  84.912  0.00  0.00    +0.025 C 
ATOM     10  CG2 ILE A   1      47.188  18.877  84.040  0.00  0.00    +0.002 C 
BRANCH   9  11
ATOM     11  CG1 ILE A   1      45.416  20.252  85.214  0.00  0.00    +0.002 C 
ATOM     12  CD1 ILE A   1      44.566  20.604  83.994  0.00  0.00    +0.000 C 
ENDBRANCH   9  11
ENDBRANCH   6   9
ENDBRANCH   2   6
ENDBRANCH   1   4
BRANCH   1  13
ATOM     13  C   ARG A   2      52.074  19.585  86.830  0.00  0.00    +0.227 C 
ATOM     14  O   ARG A   2      52.825  18.612  86.866  0.00  0.00    -0.286 OA
ENDBRANCH   1  13
BRANCH   1  15
ATOM     15  CB  ARG A   2      52.326  21.183  84.862  0.00  0.00    +0.031 C 
BRANCH  15  16
ATOM     16  CG  ARG A   2      51.806  21.615  83.500  0.00  0.00    +0.045 C 
BRANCH  16  17
ATOM     17  CD  ARG A   2      52.553  22.825  82.960  0.00  0.00    +0.174 C 
BRANCH  17  18
ATOM     18  NE  ARG A   2      53.864  22.443  82.460  0.00  0.00    -0.265 N 
ATOM     19  HE  ARG A   2      54.128  21.437  82.463  0.00  0.00    +0.259 HD
ATOM     20  CZ  ARG A   2      54.737  23.332  81.999  0.00  0.00    +0.342 C 
ATOM     21  NH2 ARG A   2      54.403  24.630  82.038  0.00  0.00    -0.292 N 
ATOM     22 HH21 ARG A   2      53.481  24.918  82.422  0.00  0.00    +0.255 HD
ATOM     23 HH22 ARG A   2      55.066  25.349  81.684  0.00  0.00    +0.255 HD
ATOM     24  NH1 ARG A   2      55.914  23.040  81.539  0.00  0.00    -0.292 N 
ATOM     25 HH11 ARG A   2      56.232  22.050  81.514  0.00  0.00    +0.255 HD
ATOM     26 HH12 ARG A   2      56.540  23.796  81.195  0.00  0.00    +0.255 HD
ENDBRANCH  17  18
ENDBRANCH  16  17
ENDBRANCH  15  16
ENDBRANCH   1  15
TORSDOF 10
REMARK  Name = ../refined-set-2016/1fcz/1fcz_pocket.pdb
REMARK  259 active torsions:
REMARK  status: ('A' for Active; 'I' for Inactive)
REMARK    1  A    between atoms: _1  and  _3
REMARK    2  A    between atoms: _3  and  _4
REMARK    3  A    between atoms: _3  and  _6
REMARK    4  A    between atoms: _6  and  _7
REMARK    5  A    between atoms: _10  and  _12
REMARK    6  A    between atoms: _12  and  _13
REMARK    7  A    between atoms: _12  and  _15
REMARK    8  A    between atoms: _15  and  _16
REMARK    9  A    between atoms: _23  and  _24
REMARK   10  A    between atoms: _29  and  _31
REMARK   11  A    between atoms: _31  and  _32
REMARK   12  A    between atoms: _31  and  _34
REMARK   13  A    between atoms: _34  and  _35
REMARK   14  A    between atoms: _38  and  _40
REMARK   15  A    between atoms: _40  and  _41
REMARK   16  A    between atoms: _40  and  _43
REMARK   17  A    between atoms: _43  and  _44
REMARK   18  A    between atoms: _54  and  _56
REMARK   19  A    between atoms: _56  and  _57
REMARK   20  A    between atoms: _56  and  _59
REMARK   21  A    between atoms: _59  and  _60
REMARK   22  A    between atoms: _60  and  _61
REMARK   23  A    between atoms: _61  and  _62
REMARK   24  A    between atoms: _62  and  _63
REMARK   25  A    between atoms: _67  and  _69
REMARK   26  A    between atoms: _69  and  _70
REMARK   27  A    between atoms: _69  and  _72
REMARK   28  A    between atoms: _72  and  _73
REMARK   29  A    between atoms: _79  and  _81
REMARK   30  A    between atoms: _81  and  _82
REMARK   31  A    between atoms: _81  and  _84
REMARK   32  A    between atoms: _84  and  _85
REMARK   33  A    between atoms: _87  and  _89
REMARK   34  A    between atoms: _89  and  _90
REMARK   35  A    between atoms: _89  and  _92
REMARK   36  A    between atoms: _92  and  _93
REMARK   37  A    between atoms: _93  and  _94
REMARK   38  A    between atoms: _97  and  _99
REMARK   39  A    between atoms: _99  and  _100
REMARK   40  A    between atoms: _99  and  _102
REMARK   41  A    between atoms: _102  and  _103
REMARK   42  A    between atoms: _106  and  _108
REMARK   43  A    between atoms: _108  and  _109
REMARK   44  A    between atoms: _112  and  _114
REMARK   45  A    between atoms: _114  and  _115
REMARK   46  A    between atoms: _114  and  _117
REMARK   47  A    between atoms: _117  and  _118
REMARK   48  A    between atoms: _121  and  _123
REMARK   49  A    between atoms: _123  and  _124
REMARK   50  A    between atoms: _123  and  _126
REMARK   51  A    between atoms: _126  and  _127
REMARK   52  A    between atoms: _127  and  _128
REMARK   53  A    between atoms: _128  and  _129
REMARK   54  A    between atoms: _129  and  _130
REMARK   55  A    between atoms: _134  and  _136
REMARK   56  A    between atoms: _136  and  _137
REMARK   57  A    between atoms: _136  and  _139
REMARK   58  A    between atoms: _141  and  _143
REMARK   59  A    between atoms: _143  and  _144
REMARK   60  A    between atoms: _143  and  _146
REMARK   61  A    between atoms: _146  and  _147
REMARK   62  A    between atoms: _150  and  _152
REMARK   63  A    between atoms: _152  and  _153
REMARK   64  A    between atoms: _152  and  _155
REMARK   65  A    between atoms: _155  and  _156
REMARK   66  A    between atoms: _156  and  _157
REMARK   67  A    between atoms: _157  and  _158
REMARK   68  A    between atoms: _158  and  _159
REMARK   69  A    between atoms: _163  and  _165
REMARK   70  A    between atoms: _165  and  _166
REMARK   71  A    between atoms: _165  and  _168
REMARK   72  A    between atoms: _168  and  _169
REMARK   73  A    between atoms: _172  and  _174
REMARK   74  A    between atoms: _174  and  _175
REMARK   75  A    between atoms: _174  and  _177
REMARK   76  A    between atoms: _179  and  _181
REMARK   77  A    between atoms: _181  and  _182
REMARK   78  A    between atoms: _181  and  _184
REMARK   79  A    between atoms: _184  and  _185
REMARK   80  A    between atoms: _188  and  _190
REMARK   81  A    between atoms: _190  and  _191
REMARK   82  A    between atoms: _190  and  _193
REMARK   83  A    between atoms: _193  and  _194
REMARK   84  A    between atoms: _197  and  _199
REMARK   85  A    between atoms: _199  and  _200
REMARK   86  A    between atoms: _199  and  _202
REMARK   87  A    between atoms: _202  and  _203
REMARK   88  A    between atoms: _206  and  _208
REMARK   89  A    between atoms: _208  and  _209
REMARK   90  A    between atoms: _208  and  _211
REMARK   91  A    between atoms: _211  and  _212
REMARK   92  A    between atoms: _215  and  _217
REMARK   93  A    between atoms: _217  and  _218
REMARK   94  A    between atoms: _217  and  _220
REMARK   95  A    between atoms: _220  and  _221
REMARK   96  A    between atoms: _221  and  _222
REMARK   97  A    between atoms: _224  and  _226
REMARK   98  A    between atoms: _226  and  _227
REMARK   99  A    between atoms: _226  and  _229
REMARK  100  A    between atoms: _229  and  _230
REMARK  101  A    between atoms: _233  and  _235
REMARK  102  A    between atoms: _235  and  _236
REMARK  103  A    between atoms: _235  and  _238
REMARK  104  A    between atoms: _238  and  _239
REMARK  105  A    between atoms: _239  and  _240
REMARK  106  A    between atoms: _240  and  _241
REMARK  107  A    between atoms: _250  and  _252
REMARK  108  A    between atoms: _252  and  _253
REMARK  109  A    between atoms: _252  and  _255
REMARK  110  A    between atoms: _255  and  _256
REMARK  111  A    between atoms: _259  and  _261
REMARK  112  A    between atoms: _261  and  _262
REMARK  113  A    between atoms: _261  and  _264
REMARK  114  A    between atoms: _266  and  _268
REMARK  115  A    between atoms: _268  and  _269
REMARK  116  A    between atoms: _268  and  _271
REMARK  117  A    between atoms: _271  and  _272
REMARK  118  A    between atoms: _275  and  _277
REMARK  119  A    between atoms: _277  and  _278
REMARK  120  A    between atoms: _277  and  _280
REMARK  121  A    between atoms: _280  and  _281
REMARK  122  A    between atoms: _281  and  _282
REMARK  123  A    between atoms: _282  and  _283
REMARK  124  A    between atoms: _292  and  _294
REMARK  125  A    between atoms: _294  and  _295
REMARK  126  A    between atoms: _294  and  _297
REMARK  127  A    between atoms: _297  and  _298
REMARK  128  A    between atoms: _298  and  _299
REMARK  129  A    between atoms: _301  and  _303
REMARK  130  A    between atoms: _303  and  _304
REMARK  131  A    between atoms: _303  and  _306
REMARK  132  A    between atoms: _306  and  _307
REMARK  133  A    between atoms: _310  and  _312
REMARK  134  A    between atoms: _312  and  _313
REMARK  135  A    between atoms: _312  and  _315
REMARK  136  A    between atoms: _315  and  _316
REMARK  137  A    between atoms: _322  and  _324
REMARK  138  A    between atoms: _324  and  _325
REMARK  139  A    between atoms: _324  and  _327
REMARK  140  A    between atoms: _327  and  _328
REMARK  141  A    between atoms: _330  and  _332
REMARK  142  A    between atoms: _332  and  _333
REMARK  143  A    between atoms: _332  and  _335
REMARK  144  A    between atoms: _335  and  _336
REMARK  145  A    between atoms: _339  and  _341
REMARK  146  A    between atoms: _341  and  _342
REMARK  147  A    between atoms: _344  and  _346
REMARK  148  A    between atoms: _346  and  _347
REMARK  149  A    between atoms: _346  and  _349
REMARK  150  A    between atoms: _349  and  _350
REMARK  151  A    between atoms: _353  and  _355
REMARK  152  A    between atoms: _355  and  _356
REMARK  153  A    between atoms: _355  and  _358
REMARK  154  A    between atoms: _358  and  _359
REMARK  155  A    between atoms: _359  and  _360
REMARK  156  A    between atoms: _362  and  _364
REMARK  157  A    between atoms: _364  and  _365
REMARK  158  A    between atoms: _364  and  _367
REMARK  159  A    between atoms: _367  and  _368
REMARK  160  A    between atoms: _373  and  _375
REMARK  161  A    between atoms: _375  and  _376
REMARK  162  A    between atoms: _379  and  _381
REMARK  163  A    between atoms: _381  and  _382
REMARK  164  A    between atoms: _384  and  _386
REMARK  165  A    between atoms: _386  and  _387
REMARK  166  A    between atoms: _386  and  _389
REMARK  167  A    between atoms: _389  and  _390
REMARK  168  A    between atoms: _396  and  _398
REMARK  169  A    between atoms: _398  and  _399
REMARK  170  A    between atoms: _401  and  _403
REMARK  171  A    between atoms: _403  and  _404
REMARK  172  A    between atoms: _403  and  _406
REMARK  173  A    between atoms: _406  and  _407
REMARK  174  A    between atoms: _410  and  _412
REMARK  175  A    between atoms: _412  and  _413
REMARK  176  A    between atoms: _412  and  _415
REMARK  177  A    between atoms: _415  and  _416
REMARK  178  A    between atoms: _419  and  _421
REMARK  179  A    between atoms: _421  and  _422
REMARK  180  A    between atoms: _421  and  _424
REMARK  181  A    between atoms: _427  and  _429
REMARK  182  A    between atoms: _429  and  _430
REMARK  183  A    between atoms: _429  and  _432
REMARK  184  A    between atoms: _432  and  _433
REMARK  185  A    between atoms: _436  and  _438
REMARK  186  A    between atoms: _438  and  _439
REMARK  187  A    between atoms: _438  and  _441
REMARK  188  A    between atoms: _441  and  _442
REMARK  189  A    between atoms: _445  and  _447
REMARK  190  A    between atoms: _447  and  _448
REMARK  191  A    between atoms: _447  and  _450
REMARK  192  A    between atoms: _450  and  _451
REMARK  193  A    between atoms: _453  and  _455
REMARK  194  A    between atoms: _455  and  _456
REMARK  195  A    between atoms: _455  and  _458
REMARK  196  A    between atoms: _458  and  _459
REMARK  197  A    between atoms: _459  and  _460
REMARK  198  A    between atoms: _460  and  _461
REMARK  199  A    between atoms: _461  and  _462
REMARK  200  A    between atoms: _466  and  _468
REMARK  201  A    between atoms: _468  and  _469
REMARK  202  A    between atoms: _471  and  _473
REMARK  203  A    between atoms: _473  and  _474
REMARK  204  A    between atoms: _477  and  _479
REMARK  205  A    between atoms: _479  and  _480
REMARK  206  A    between atoms: _479  and  _482
REMARK  207  A    between atoms: _483  and  _484
REMARK  208  A    between atoms: _487  and  _489
REMARK  209  A    between atoms: _489  and  _490
REMARK  210  A    between atoms: _489  and  _492
REMARK  211  A    between atoms: _492  and  _493
REMARK  212  A    between atoms: _493  and  _494
REMARK  213  A    between atoms: _494  and  _495
REMARK  214  A    between atoms: _504  and  _506
REMARK  215  A    between atoms: _506  and  _507
REMARK  216  A    between atoms: _510  and  _512
REMARK  217  A    between atoms: _512  and  _513
REMARK  218  A    between atoms: _512  and  _515
REMARK  219  A    between atoms: _515  and  _516
REMARK  220  A    between atoms: _519  and  _521
REMARK  221  A    between atoms: _521  and  _522
REMARK  222  A    between atoms: _521  and  _524
REMARK  223  A    between atoms: _524  and  _525
REMARK  224  A    between atoms: _528  and  _530
REMARK  225  A    between atoms: _530  and  _531
REMARK  226  A    between atoms: _530  and  _533
REMARK  227  A    between atoms: _533  and  _534
REMARK  228  A    between atoms: _537  and  _539
REMARK  229  A    between atoms: _539  and  _540
REMARK  230  A    between atoms: _539  and  _542
REMARK  231  A    between atoms: _542  and  _543
REMARK  232  A    between atoms: _543  and  _544
REMARK  233  A    between atoms: _544  and  _545
REMARK  234  A    between atoms: _545  and  _546
REMARK  235  A    between atoms: _550  and  _552
REMARK  236  A    between atoms: _552  and  _553
REMARK  237  A    between atoms: _552  and  _555
REMARK  238  A    between atoms: _555  and  _556
REMARK  239  A    between atoms: _556  and  _557
REMARK  240  A    between atoms: _560  and  _561
REMARK  241  A    between atoms: _566  and  _568
REMARK  242  A    between atoms: _568  and  _569
REMARK  243  A    between atoms: _568  and  _571
REMARK  244  A    between atoms: _571  and  _572
REMARK  245  A    between atoms: _575  and  _577
REMARK  246  A    between atoms: _577  and  _578
REMARK  247  A    between atoms: _577  and  _580
REMARK  248  A    between atoms: _580  and  _581
REMARK  249  A    between atoms: _581  and  _582
REMARK  250  A    between atoms: _582  and  _583
REMARK  251  A    between atoms: _592  and  _594
REMARK  252  A    between atoms: _594  and  _595
REMARK  253  A    between atoms: _594  and  _597
REMARK  254  A    between atoms: _597  and  _598
REMARK  255  A    between atoms: _598  and  _599
REMARK  256  A    between atoms: _601  and  _603
REMARK  257  A    between atoms: _603  and  _604
REMARK  258  A    between atoms: _603  and  _606
REMARK  259  A    between atoms: _606  and  _607
REMARK                            x       y       z     vdW  Elec       q    Type
REMARK                         _______ _______ _______ _____ _____    ______ ____
ROOT
ATOM      1  C   MET A   1      50.700  15.667  88.576  0.00  0.00    +0.238 C 
ATOM      2  O   MET A   1      50.955  14.544  89.064  0.00  0.00    -0.274 OA
ATOM      3  N   LEU A   2      51.046  16.013  87.346  0.00  0.00    -0.298 N 
ATOM      4  H   LEU A   2      50.890  16.993  87.033  0.00  0.00    +0.150 HD
ENDROOT
BRANCH   1   5
ATOM      5  CA  MET A   1      49.958  16.689  89.365  0.00  0.00    +0.146 C 
BRANCH   5   6
ATOM      6  N   MET A   1      50.487  18.040  89.186  0.00  0.00    -0.238 NA
ATOM      7  H   MET A   1      49.877  18.780  88.783  0.00  0.00    +0.142 HD
ENDBRANCH   5   6
BRANCH   5   8
ATOM      8  CB  MET A   1      48.418  16.748  89.051  0.00  0.00    +0.038 C 
BRANCH   8   9
ATOM      9  CG  MET A   1      47.780  15.390  88.970  0.00  0.00    +0.060 C 
BRANCH   9  10
ATOM     10  SD  MET A   1      46.041  15.506  88.679  0.00  0.00    -0.139 S 
ATOM     11  CE  MET A   1      46.030  15.911  86.926  0.00  0.00    +0.069 C 
ENDBRANCH   9  10
ENDBRANCH   8   9
ENDBRANCH   5   8
ENDBRANCH   1   5
BRANCH   3  12
ATOM     12  CA  LEU A   2      51.639  15.059  86.419  0.00  0.00    +0.137 C 
BRANCH  12  13
ATOM     13  C   LEU A   2      53.115  14.835  86.678  0.00  0.00    +0.227 C 
ATOM     14  O   LEU A   2      53.642  13.818  86.232  0.00  0.00    -0.286 OA
ENDBRANCH  12  13
BRANCH  12  15
ATOM     15  CB  LEU A   2      51.402  15.552  84.973  0.00  0.00    +0.028 C 
BRANCH  15  16
ATOM     16  CG  LEU A   2      49.925  15.539  84.529  0.00  0.00    +0.002 C 
ATOM     17  CD2 LEU A   2      49.371  14.130  84.502  0.00  0.00    +0.000 C 
ATOM     18  CD1 LEU A   2      49.799  16.197  83.159  0.00  0.00    +0.000 C 
ENDBRANCH  15  16
ENDBRANCH  12  15
ENDBRANCH   3  12
TORSDOF 9
REMARK  Name = ../refined-set-2016/1fcz/1fcz_pocket.pdb
REMARK  259 active torsions:
REMARK  status: ('A' for Active; 'I' for Inactive)
REMARK    1  A    between atoms: _1  and  _3
REMARK    2  A    between atoms: _3  and  _4
REMARK    3  A    between atoms: _3  and  _6
REMARK    4  A    between atoms: _6  and  _7
REMARK    5  A    between atoms: _10  and  _12
REMARK    6  A    between atoms: _12  and  _13
REMARK    7  A    between atoms: _12  and  _15
REMARK    8  A    between atoms: _15  and  _16
REMARK    9  A    between atoms: _23  and  _24
REMARK   10  A    between atoms: _29  and  _31
REMARK   11  A    between atoms: _31  and  _32
REMARK   12  A    between atoms: _31  and  _34
REMARK   13  A    between atoms: _34  and  _35
REMARK   14  A    between atoms: _38  and  _40
REMARK   15  A    between atoms: _40  and  _41
REMARK   16  A    between atoms: _40  and  _43
REMARK   17  A    between atoms: _43  and  _44
REMARK   18  A    between atoms: _54  and  _56
REMARK   19  A    between atoms: _56  and  _57
REMARK   20  A    between atoms: _56  and  _59
REMARK   21  A    between atoms: _59  and  _60
REMARK   22  A    between atoms: _60  and  _61
REMARK   23  A    between atoms: _61  and  _62
REMARK   24  A    between atoms: _62  and  _63
REMARK   25  A    between atoms: _67  and  _69
REMARK   26  A    between atoms: _69  and  _70
REMARK   27  A    between atoms: _69  and  _72
REMARK   28  A    between atoms: _72  and  _73
REMARK   29  A    between atoms: _79  and  _81
REMARK   30  A    between atoms: _81  and  _82
REMARK   31  A    between atoms: _81  and  _84
REMARK   32  A    between atoms: _84  and  _85
REMARK   33  A    between atoms: _87  and  _89
REMARK   34  A    between atoms: _89  and  _90
REMARK   35  A    between atoms: _89  and  _92
REMARK   36  A    between atoms: _92  and  _93
REMARK   37  A    between atoms: _93  and  _94
REMARK   38  A    between atoms: _97  and  _99
REMARK   39  A    between atoms: _99  and  _100
REMARK   40  A    between atoms: _99  and  _102
REMARK   41  A    between atoms: _102  and  _103
REMARK   42  A    between atoms: _106  and  _108
REMARK   43  A    between atoms: _108  and  _109
REMARK   44  A    between atoms: _112  and  _114
REMARK   45  A    between atoms: _114  and  _115
REMARK   46  A    between atoms: _114  and  _117
REMARK   47  A    between atoms: _117  and  _118
REMARK   48  A    between atoms: _121  and  _123
REMARK   49  A    between atoms: _123  and  _124
REMARK   50  A    between atoms: _123  and  _126
REMARK   51  A    between atoms: _126  and  _127
REMARK   52  A    between atoms: _127  and  _128
REMARK   53  A    between atoms: _128  and  _129
REMARK   54  A    between atoms: _129  and  _130
REMARK   55  A    between atoms: _134  and  _136
REMARK   56  A    between atoms: _136  and  _137
REMARK   57  A    between atoms: _136  and  _139
REMARK   58  A    between atoms: _141  and  _143
REMARK   59  A    between atoms: _143  and  _144
REMARK   60  A    between atoms: _143  and  _146
REMARK   61  A    between atoms: _146  and  _147
REMARK   62  A    between atoms: _150  and  _152
REMARK   63  A    between atoms: _152  and  _153
REMARK   64  A    between atoms: _152  and  _155
REMARK   65  A    between atoms: _155  and  _156
REMARK   66  A    between atoms: _156  and  _157
REMARK   67  A    between atoms: _157  and  _158
REMARK   68  A    between atoms: _158  and  _159
REMARK   69  A    between atoms: _163  and  _165
REMARK   70  A    between atoms: _165  and  _166
REMARK   71  A    between atoms: _165  and  _168
REMARK   72  A    between atoms: _168  and  _169
REMARK   73  A    between atoms: _172  and  _174
REMARK   74  A    between atoms: _174  and  _175
REMARK   75  A    between atoms: _174  and  _177
REMARK   76  A    between atoms: _179  and  _181
REMARK   77  A    between atoms: _181  and  _182
REMARK   78  A    between atoms: _181  and  _184
REMARK   79  A    between atoms: _184  and  _185
REMARK   80  A    between atoms: _188  and  _190
REMARK   81  A    between atoms: _190  and  _191
REMARK   82  A    between atoms: _190  and  _193
REMARK   83  A    between atoms: _193  and  _194
REMARK   84  A    between atoms: _197  and  _199
REMARK   85  A    between atoms: _199  and  _200
REMARK   86  A    between atoms: _199  and  _202
REMARK   87  A    between atoms: _202  and  _203
REMARK   88  A    between atoms: _206  and  _208
REMARK   89  A    between atoms: _208  and  _209
REMARK   90  A    between atoms: _208  and  _211
REMARK   91  A    between atoms: _211  and  _212
REMARK   92  A    between atoms: _215  and  _217
REMARK   93  A    between atoms: _217  and  _218
REMARK   94  A    between atoms: _217  and  _220
REMARK   95  A    between atoms: _220  and  _221
REMARK   96  A    between atoms: _221  and  _222
REMARK   97  A    between atoms: _224  and  _226
REMARK   98  A    between atoms: _226  and  _227
REMARK   99  A    between atoms: _226  and  _229
REMARK  100  A    between atoms: _229  and  _230
REMARK  101  A    between atoms: _233  and  _235
REMARK  102  A    between atoms: _235  and  _236
REMARK  103  A    between atoms: _235  and  _238
REMARK  104  A    between atoms: _238  and  _239
REMARK  105  A    between atoms: _239  and  _240
REMARK  106  A    between atoms: _240  and  _241
REMARK  107  A    between atoms: _250  and  _252
REMARK  108  A    between atoms: _252  and  _253
REMARK  109  A    between atoms: _252  and  _255
REMARK  110  A    between atoms: _255  and  _256
REMARK  111  A    between atoms: _259  and  _261
REMARK  112  A    between atoms: _261  and  _262
REMARK  113  A    between atoms: _261  and  _264
REMARK  114  A    between atoms: _266  and  _268
REMARK  115  A    between atoms: _268  and  _269
REMARK  116  A    between atoms: _268  and  _271
REMARK  117  A    between atoms: _271  and  _272
REMARK  118  A    between atoms: _275  and  _277
REMARK  119  A    between atoms: _277  and  _278
REMARK  120  A    between atoms: _277  and  _280
REMARK  121  A    between atoms: _280  and  _281
REMARK  122  A    between atoms: _281  and  _282
REMARK  123  A    between atoms: _282  and  _283
REMARK  124  A    between atoms: _292  and  _294
REMARK  125  A    between atoms: _294  and  _295
REMARK  126  A    between atoms: _294  and  _297
REMARK  127  A    between atoms: _297  and  _298
REMARK  128  A    between atoms: _298  and  _299
REMARK  129  A    between atoms: _301  and  _303
REMARK  130  A    between atoms: _303  and  _304
REMARK  131  A    between atoms: _303  and  _306
REMARK  132  A    between atoms: _306  and  _307
REMARK  133  A    between atoms: _310  and  _312
REMARK  134  A    between atoms: _312  and  _313
REMARK  135  A    between atoms: _312  and  _315
REMARK  136  A    between atoms: _315  and  _316
REMARK  137  A    between atoms: _322  and  _324
REMARK  138  A    between atoms: _324  and  _325
REMARK  139  A    between atoms: _324  and  _327
REMARK  140  A    between atoms: _327  and  _328
REMARK  141  A    between atoms: _330  and  _332
REMARK  142  A    between atoms: _332  and  _333
REMARK  143  A    between atoms: _332  and  _335
REMARK  144  A    between atoms: _335  and  _336
REMARK  145  A    between atoms: _339  and  _341
REMARK  146  A    between atoms: _341  and  _342
REMARK  147  A    between atoms: _344  and  _346
REMARK  148  A    between atoms: _346  and  _347
REMARK  149  A    between atoms: _346  and  _349
REMARK  150  A    between atoms: _349  and  _350
REMARK  151  A    between atoms: _353  and  _355
REMARK  152  A    between atoms: _355  and  _356
REMARK  153  A    between atoms: _355  and  _358
REMARK  154  A    between atoms: _358  and  _359
REMARK  155  A    between atoms: _359  and  _360
REMARK  156  A    between atoms: _362  and  _364
REMARK  157  A    between atoms: _364  and  _365
REMARK  158  A    between atoms: _364  and  _367
REMARK  159  A    between atoms: _367  and  _368
REMARK  160  A    between atoms: _373  and  _375
REMARK  161  A    between atoms: _375  and  _376
REMARK  162  A    between atoms: _379  and  _381
REMARK  163  A    between atoms: _381  and  _382
REMARK  164  A    between atoms: _384  and  _386
REMARK  165  A    between atoms: _386  and  _387
REMARK  166  A    between atoms: _386  and  _389
REMARK  167  A    between atoms: _389  and  _390
REMARK  168  A    between atoms: _396  and  _398
REMARK  169  A    between atoms: _398  and  _399
REMARK  170  A    between atoms: _401  and  _403
REMARK  171  A    between atoms: _403  and  _404
REMARK  172  A    between atoms: _403  and  _406
REMARK  173  A    between atoms: _406  and  _407
REMARK  174  A    between atoms: _410  and  _412
REMARK  175  A    between atoms: _412  and  _413
REMARK  176  A    between atoms: _412  and  _415
REMARK  177  A    between atoms: _415  and  _416
REMARK  178  A    between atoms: _419  and  _421
REMARK  179  A    between atoms: _421  and  _422
REMARK  180  A    between atoms: _421  and  _424
REMARK  181  A    between atoms: _427  and  _429
REMARK  182  A    between atoms: _429  and  _430
REMARK  183  A    between atoms: _429  and  _432
REMARK  184  A    between atoms: _432  and  _433
REMARK  185  A    between atoms: _436  and  _438
REMARK  186  A    between atoms: _438  and  _439
REMARK  187  A    between atoms: _438  and  _441
REMARK  188  A    between atoms: _441  and  _442
REMARK  189  A    between atoms: _445  and  _447
REMARK  190  A    between atoms: _447  and  _448
REMARK  191  A    between atoms: _447  and  _450
REMARK  192  A    between atoms: _450  and  _451
REMARK  193  A    between atoms: _453  and  _455
REMARK  194  A    between atoms: _455  and  _456
REMARK  195  A    between atoms: _455  and  _458
REMARK  196  A    between atoms: _458  and  _459
REMARK  197  A    between atoms: _459  and  _460
REMARK  198  A    between atoms: _460  and  _461
REMARK  199  A    between atoms: _461  and  _462
REMARK  200  A    between atoms: _466  and  _468
REMARK  201  A    between atoms: _468  and  _469
REMARK  202  A    between atoms: _471  and  _473
REMARK  203  A    between atoms: _473  and  _474
REMARK  204  A    between atoms: _477  and  _479
REMARK  205  A    between atoms: _479  and  _480
REMARK  206  A    between atoms: _479  and  _482
REMARK  207  A    between atoms: _483  and  _484
REMARK  208  A    between atoms: _487  and  _489
REMARK  209  A    between atoms: _489  and  _490
REMARK  210  A    between atoms: _489  and  _492
REMARK  211  A    between atoms: _492  and  _493
REMARK  212  A    between atoms: _493  and  _494
REMARK  213  A    between atoms: _494  and  _495
REMARK  214  A    between atoms: _504  and  _506
REMARK  215  A    between atoms: _506  and  _507
REMARK  216  A    between atoms: _510  and  _512
REMARK  217  A    between atoms: _512  and  _513
REMARK  218  A    between atoms: _512  and  _515
REMARK  219  A    between atoms: _515  and  _516
REMARK  220  A    between atoms: _519  and  _521
REMARK  221  A    between atoms: _521  and  _522
REMARK  222  A    between atoms: _521  and  _524
REMARK  223  A    between atoms: _524  and  _525
REMARK  224  A    between atoms: _528  and  _530
REMARK  225  A    between atoms: _530  and  _531
REMARK  226  A    between atoms: _530  and  _533
REMARK  227  A    between atoms: _533  and  _534
REMARK  228  A    between atoms: _537  and  _539
REMARK  229  A    between atoms: _539  and  _540
REMARK  230  A    between atoms: _539  and  _542
REMARK  231  A    between atoms: _542  and  _543
REMARK  232  A    between atoms: _543  and  _544
REMARK  233  A    between atoms: _544  and  _545
REMARK  234  A    between atoms: _545  and  _546
REMARK  235  A    between atoms: _550  and  _552
REMARK  236  A    between atoms: _552  and  _553
REMARK  237  A    between atoms: _552  and  _555
REMARK  238  A    between atoms: _555  and  _556
REMARK  239  A    between atoms: _556  and  _557
REMARK  240  A    between atoms: _560  and  _561
REMARK  241  A    between atoms: _566  and  _568
REMARK  242  A    between atoms: _568  and  _569
REMARK  243  A    between atoms: _568  and  _571
REMARK  244  A    between atoms: _571  and  _572
REMARK  245  A    between atoms: _575  and  _577
REMARK  246  A    between atoms: _577  and  _578
REMARK  247  A    between atoms: _577  and  _580
REMARK  248  A    between atoms: _580  and  _581
REMARK  249  A    between atoms: _581  and  _582
REMARK  250  A    between atoms: _582  and  _583
REMARK  251  A    between atoms: _592  and  _594
REMARK  252  A    between atoms: _594  and  _595
REMARK  253  A    between atoms: _594  and  _597
REMARK  254  A    between atoms: _597  and  _598
REMARK  255  A    between atoms: _598  and  _599
REMARK  256  A    between atoms: _601  and  _603
REMARK  257  A    between atoms: _603  and  _604
REMARK  258  A    between atoms: _603  and  _606
REMARK  259  A    between atoms: _606  and  _607
REMARK                            x       y       z     vdW  Elec       q    Type
REMARK                         _______ _______ _______ _____ _____    ______ ____
ROOT
ATOM      1  O   HOH     1      34.218  19.947  93.109  0.00  0.00    +0.000 OA
ENDROOT
TORSDOF 0
REMARK  Name = ../refined-set-2016/1fcz/1fcz_pocket.pdb
REMARK  259 active torsions:
REMARK  status: ('A' for Active; 'I' for Inactive)
REMARK    1  A    between atoms: _1  and  _3
REMARK    2  A    between atoms: _3  and  _4
REMARK    3  A    between atoms: _3  and  _6
REMARK    4  A    between atoms: _6  and  _7
REMARK    5  A    between atoms: _10  and  _12
REMARK    6  A    between atoms: _12  and  _13
REMARK    7  A    between atoms: _12  and  _15
REMARK    8  A    between atoms: _15  and  _16
REMARK    9  A    between atoms: _23  and  _24
REMARK   10  A    between atoms: _29  and  _31
REMARK   11  A    between atoms: _31  and  _32
REMARK   12  A    between atoms: _31  and  _34
REMARK   13  A    between atoms: _34  and  _35
REMARK   14  A    between atoms: _38  and  _40
REMARK   15  A    between atoms: _40  and  _41
REMARK   16  A    between atoms: _40  and  _43
REMARK   17  A    between atoms: _43  and  _44
REMARK   18  A    between atoms: _54  and  _56
REMARK   19  A    between atoms: _56  and  _57
REMARK   20  A    between atoms: _56  and  _59
REMARK   21  A    between atoms: _59  and  _60
REMARK   22  A    between atoms: _60  and  _61
REMARK   23  A    between atoms: _61  and  _62
REMARK   24  A    between atoms: _62  and  _63
REMARK   25  A    between atoms: _67  and  _69
REMARK   26  A    between atoms: _69  and  _70
REMARK   27  A    between atoms: _69  and  _72
REMARK   28  A    between atoms: _72  and  _73
REMARK   29  A    between atoms: _79  and  _81
REMARK   30  A    between atoms: _81  and  _82
REMARK   31  A    between atoms: _81  and  _84
REMARK   32  A    between atoms: _84  and  _85
REMARK   33  A    between atoms: _87  and  _89
REMARK   34  A    between atoms: _89  and  _90
REMARK   35  A    between atoms: _89  and  _92
REMARK   36  A    between atoms: _92  and  _93
REMARK   37  A    between atoms: _93  and  _94
REMARK   38  A    between atoms: _97  and  _99
REMARK   39  A    between atoms: _99  and  _100
REMARK   40  A    between atoms: _99  and  _102
REMARK   41  A    between atoms: _102  and  _103
REMARK   42  A    between atoms: _106  and  _108
REMARK   43  A    between atoms: _108  and  _109
REMARK   44  A    between atoms: _112  and  _114
REMARK   45  A    between atoms: _114  and  _115
REMARK   46  A    between atoms: _114  and  _117
REMARK   47  A    between atoms: _117  and  _118
REMARK   48  A    between atoms: _121  and  _123
REMARK   49  A    between atoms: _123  and  _124
REMARK   50  A    between atoms: _123  and  _126
REMARK   51  A    between atoms: _126  and  _127
REMARK   52  A    between atoms: _127  and  _128
REMARK   53  A    between atoms: _128  and  _129
REMARK   54  A    between atoms: _129  and  _130
REMARK   55  A    between atoms: _134  and  _136
REMARK   56  A    between atoms: _136  and  _137
REMARK   57  A    between atoms: _136  and  _139
REMARK   58  A    between atoms: _141  and  _143
REMARK   59  A    between atoms: _143  and  _144
REMARK   60  A    between atoms: _143  and  _146
REMARK   61  A    between atoms: _146  and  _147
REMARK   62  A    between atoms: _150  and  _152
REMARK   63  A    between atoms: _152  and  _153
REMARK   64  A    between atoms: _152  and  _155
REMARK   65  A    between atoms: _155  and  _156
REMARK   66  A    between atoms: _156  and  _157
REMARK   67  A    between atoms: _157  and  _158
REMARK   68  A    between atoms: _158  and  _159
REMARK   69  A    between atoms: _163  and  _165
REMARK   70  A    between atoms: _165  and  _166
REMARK   71  A    between atoms: _165  and  _168
REMARK   72  A    between atoms: _168  and  _169
REMARK   73  A    between atoms: _172  and  _174
REMARK   74  A    between atoms: _174  and  _175
REMARK   75  A    between atoms: _174  and  _177
REMARK   76  A    between atoms: _179  and  _181
REMARK   77  A    between atoms: _181  and  _182
REMARK   78  A    between atoms: _181  and  _184
REMARK   79  A    between atoms: _184  and  _185
REMARK   80  A    between atoms: _188  and  _190
REMARK   81  A    between atoms: _190  and  _191
REMARK   82  A    between atoms: _190  and  _193
REMARK   83  A    between atoms: _193  and  _194
REMARK   84  A    between atoms: _197  and  _199
REMARK   85  A    between atoms: _199  and  _200
REMARK   86  A    between atoms: _199  and  _202
REMARK   87  A    between atoms: _202  and  _203
REMARK   88  A    between atoms: _206  and  _208
REMARK   89  A    between atoms: _208  and  _209
REMARK   90  A    between atoms: _208  and  _211
REMARK   91  A    between atoms: _211  and  _212
REMARK   92  A    between atoms: _215  and  _217
REMARK   93  A    between atoms: _217  and  _218
REMARK   94  A    between atoms: _217  and  _220
REMARK   95  A    between atoms: _220  and  _221
REMARK   96  A    between atoms: _221  and  _222
REMARK   97  A    between atoms: _224  and  _226
REMARK   98  A    between atoms: _226  and  _227
REMARK   99  A    between atoms: _226  and  _229
REMARK  100  A    between atoms: _229  and  _230
REMARK  101  A    between atoms: _233  and  _235
REMARK  102  A    between atoms: _235  and  _236
REMARK  103  A    between atoms: _235  and  _238
REMARK  104  A    between atoms: _238  and  _239
REMARK  105  A    between atoms: _239  and  _240
REMARK  106  A    between atoms: _240  and  _241
REMARK  107  A    between atoms: _250  and  _252
REMARK  108  A    between atoms: _252  and  _253
REMARK  109  A    between atoms: _252  and  _255
REMARK  110  A    between atoms: _255  and  _256
REMARK  111  A    between atoms: _259  and  _261
REMARK  112  A    between atoms: _261  and  _262
REMARK  113  A    between atoms: _261  and  _264
REMARK  114  A    between atoms: _266  and  _268
REMARK  115  A    between atoms: _268  and  _269
REMARK  116  A    between atoms: _268  and  _271
REMARK  117  A    between atoms: _271  and  _272
REMARK  118  A    between atoms: _275  and  _277
REMARK  119  A    between atoms: _277  and  _278
REMARK  120  A    between atoms: _277  and  _280
REMARK  121  A    between atoms: _280  and  _281
REMARK  122  A    between atoms: _281  and  _282
REMARK  123  A    between atoms: _282  and  _283
REMARK  124  A    between atoms: _292  and  _294
REMARK  125  A    between atoms: _294  and  _295
REMARK  126  A    between atoms: _294  and  _297
REMARK  127  A    between atoms: _297  and  _298
REMARK  128  A    between atoms: _298  and  _299
REMARK  129  A    between atoms: _301  and  _303
REMARK  130  A    between atoms: _303  and  _304
REMARK  131  A    between atoms: _303  and  _306
REMARK  132  A    between atoms: _306  and  _307
REMARK  133  A    between atoms: _310  and  _312
REMARK  134  A    between atoms: _312  and  _313
REMARK  135  A    between atoms: _312  and  _315
REMARK  136  A    between atoms: _315  and  _316
REMARK  137  A    between atoms: _322  and  _324
REMARK  138  A    between atoms: _324  and  _325
REMARK  139  A    between atoms: _324  and  _327
REMARK  140  A    between atoms: _327  and  _328
REMARK  141  A    between atoms: _330  and  _332
REMARK  142  A    between atoms: _332  and  _333
REMARK  143  A    between atoms: _332  and  _335
REMARK  144  A    between atoms: _335  and  _336
REMARK  145  A    between atoms: _339  and  _341
REMARK  146  A    between atoms: _341  and  _342
REMARK  147  A    between atoms: _344  and  _346
REMARK  148  A    between atoms: _346  and  _347
REMARK  149  A    between atoms: _346  and  _349
REMARK  150  A    between atoms: _349  and  _350
REMARK  151  A    between atoms: _353  and  _355
REMARK  152  A    between atoms: _355  and  _356
REMARK  153  A    between atoms: _355  and  _358
REMARK  154  A    between atoms: _358  and  _359
REMARK  155  A    between atoms: _359  and  _360
REMARK  156  A    between atoms: _362  and  _364
REMARK  157  A    between atoms: _364  and  _365
REMARK  158  A    between atoms: _364  and  _367
REMARK  159  A    between atoms: _367  and  _368
REMARK  160  A    between atoms: _373  and  _375
REMARK  161  A    between atoms: _375  and  _376
REMARK  162  A    between atoms: _379  and  _381
REMARK  163  A    between atoms: _381  and  _382
REMARK  164  A    between atoms: _384  and  _386
REMARK  165  A    between atoms: _386  and  _387
REMARK  166  A    between atoms: _386  and  _389
REMARK  167  A    between atoms: _389  and  _390
REMARK  168  A    between atoms: _396  and  _398
REMARK  169  A    between atoms: _398  and  _399
REMARK  170  A    between atoms: _401  and  _403
REMARK  171  A    between atoms: _403  and  _404
REMARK  172  A    between atoms: _403  and  _406
REMARK  173  A    between atoms: _406  and  _407
REMARK  174  A    between atoms: _410  and  _412
REMARK  175  A    between atoms: _412  and  _413
REMARK  176  A    between atoms: _412  and  _415
REMARK  177  A    between atoms: _415  and  _416
REMARK  178  A    between atoms: _419  and  _421
REMARK  179  A    between atoms: _421  and  _422
REMARK  180  A    between atoms: _421  and  _424
REMARK  181  A    between atoms: _427  and  _429
REMARK  182  A    between atoms: _429  and  _430
REMARK  183  A    between atoms: _429  and  _432
REMARK  184  A    between atoms: _432  and  _433
REMARK  185  A    between atoms: _436  and  _438
REMARK  186  A    between atoms: _438  and  _439
REMARK  187  A    between atoms: _438  and  _441
REMARK  188  A    between atoms: _441  and  _442
REMARK  189  A    between atoms: _445  and  _447
REMARK  190  A    between atoms: _447  and  _448
REMARK  191  A    between atoms: _447  and  _450
REMARK  192  A    between atoms: _450  and  _451
REMARK  193  A    between atoms: _453  and  _455
REMARK  194  A    between atoms: _455  and  _456
REMARK  195  A    between atoms: _455  and  _458
REMARK  196  A    between atoms: _458  and  _459
REMARK  197  A    between atoms: _459  and  _460
REMARK  198  A    between atoms: _460  and  _461
REMARK  199  A    between atoms: _461  and  _462
REMARK  200  A    between atoms: _466  and  _468
REMARK  201  A    between atoms: _468  and  _469
REMARK  202  A    between atoms: _471  and  _473
REMARK  203  A    between atoms: _473  and  _474
REMARK  204  A    between atoms: _477  and  _479
REMARK  205  A    between atoms: _479  and  _480
REMARK  206  A    between atoms: _479  and  _482
REMARK  207  A    between atoms: _483  and  _484
REMARK  208  A    between atoms: _487  and  _489
REMARK  209  A    between atoms: _489  and  _490
REMARK  210  A    between atoms: _489  and  _492
REMARK  211  A    between atoms: _492  and  _493
REMARK  212  A    between atoms: _493  and  _494
REMARK  213  A    between atoms: _494  and  _495
REMARK  214  A    between atoms: _504  and  _506
REMARK  215  A    between atoms: _506  and  _507
REMARK  216  A    between atoms: _510  and  _512
REMARK  217  A    between atoms: _512  and  _513
REMARK  218  A    between atoms: _512  and  _515
REMARK  219  A    between atoms: _515  and  _516
REMARK  220  A    between atoms: _519  and  _521
REMARK  221  A    between atoms: _521  and  _522
REMARK  222  A    between atoms: _521  and  _524
REMARK  223  A    between atoms: _524  and  _525
REMARK  224  A    between atoms: _528  and  _530
REMARK  225  A    between atoms: _530  and  _531
REMARK  226  A    between atoms: _530  and  _533
REMARK  227  A    between atoms: _533  and  _534
REMARK  228  A    between atoms: _537  and  _539
REMARK  229  A    between atoms: _539  and  _540
REMARK  230  A    between atoms: _539  and  _542
REMARK  231  A    between atoms: _542  and  _543
REMARK  232  A    between atoms: _543  and  _544
REMARK  233  A    between atoms: _544  and  _545
REMARK  234  A    between atoms: _545  and  _546
REMARK  235  A    between atoms: _550  and  _552
REMARK  236  A    between atoms: _552  and  _553
REMARK  237  A    between atoms: _552  and  _555
REMARK  238  A    between atoms: _555  and  _556
REMARK  239  A    between atoms: _556  and  _557
REMARK  240  A    between atoms: _560  and  _561
REMARK  241  A    between atoms: _566  and  _568
REMARK  242  A    between atoms: _568  and  _569
REMARK  243  A    between atoms: _568  and  _571
REMARK  244  A    between atoms: _571  and  _572
REMARK  245  A    between atoms: _575  and  _577
REMARK  246  A    between atoms: _577  and  _578
REMARK  247  A    between atoms: _577  and  _580
REMARK  248  A    between atoms: _580  and  _581
REMARK  249  A    between atoms: _581  and  _582
REMARK  250  A    between atoms: _582  and  _583
REMARK  251  A    between atoms: _592  and  _594
REMARK  252  A    between atoms: _594  and  _595
REMARK  253  A    between atoms: _594  and  _597
REMARK  254  A    between atoms: _597  and  _598
REMARK  255  A    between atoms: _598  and  _599
REMARK  256  A    between atoms: _601  and  _603
REMARK  257  A    between atoms: _603  and  _604
REMARK  258  A    between atoms: _603  and  _606
REMARK  259  A    between atoms: _606  and  _607
REMARK                            x       y       z     vdW  Elec       q    Type
REMARK                         _______ _______ _______ _____ _____    ______ ____
ROOT
ATOM      1  O   HOH     1      46.424   6.349  77.401  0.00  0.00    +0.000 OA
ENDROOT
TORSDOF 0
REMARK  Name = ../refined-set-2016/1fcz/1fcz_pocket.pdb
REMARK  259 active torsions:
REMARK  status: ('A' for Active; 'I' for Inactive)
REMARK    1  A    between atoms: _1  and  _3
REMARK    2  A    between atoms: _3  and  _4
REMARK    3  A    between atoms: _3  and  _6
REMARK    4  A    between atoms: _6  and  _7
REMARK    5  A    between atoms: _10  and  _12
REMARK    6  A    between atoms: _12  and  _13
REMARK    7  A    between atoms: _12  and  _15
REMARK    8  A    between atoms: _15  and  _16
REMARK    9  A    between atoms: _23  and  _24
REMARK   10  A    between atoms: _29  and  _31
REMARK   11  A    between atoms: _31  and  _32
REMARK   12  A    between atoms: _31  and  _34
REMARK   13  A    between atoms: _34  and  _35
REMARK   14  A    between atoms: _38  and  _40
REMARK   15  A    between atoms: _40  and  _41
REMARK   16  A    between atoms: _40  and  _43
REMARK   17  A    between atoms: _43  and  _44
REMARK   18  A    between atoms: _54  and  _56
REMARK   19  A    between atoms: _56  and  _57
REMARK   20  A    between atoms: _56  and  _59
REMARK   21  A    between atoms: _59  and  _60
REMARK   22  A    between atoms: _60  and  _61
REMARK   23  A    between atoms: _61  and  _62
REMARK   24  A    between atoms: _62  and  _63
REMARK   25  A    between atoms: _67  and  _69
REMARK   26  A    between atoms: _69  and  _70
REMARK   27  A    between atoms: _69  and  _72
REMARK   28  A    between atoms: _72  and  _73
REMARK   29  A    between atoms: _79  and  _81
REMARK   30  A    between atoms: _81  and  _82
REMARK   31  A    between atoms: _81  and  _84
REMARK   32  A    between atoms: _84  and  _85
REMARK   33  A    between atoms: _87  and  _89
REMARK   34  A    between atoms: _89  and  _90
REMARK   35  A    between atoms: _89  and  _92
REMARK   36  A    between atoms: _92  and  _93
REMARK   37  A    between atoms: _93  and  _94
REMARK   38  A    between atoms: _97  and  _99
REMARK   39  A    between atoms: _99  and  _100
REMARK   40  A    between atoms: _99  and  _102
REMARK   41  A    between atoms: _102  and  _103
REMARK   42  A    between atoms: _106  and  _108
REMARK   43  A    between atoms: _108  and  _109
REMARK   44  A    between atoms: _112  and  _114
REMARK   45  A    between atoms: _114  and  _115
REMARK   46  A    between atoms: _114  and  _117
REMARK   47  A    between atoms: _117  and  _118
REMARK   48  A    between atoms: _121  and  _123
REMARK   49  A    between atoms: _123  and  _124
REMARK   50  A    between atoms: _123  and  _126
REMARK   51  A    between atoms: _126  and  _127
REMARK   52  A    between atoms: _127  and  _128
REMARK   53  A    between atoms: _128  and  _129
REMARK   54  A    between atoms: _129  and  _130
REMARK   55  A    between atoms: _134  and  _136
REMARK   56  A    between atoms: _136  and  _137
REMARK   57  A    between atoms: _136  and  _139
REMARK   58  A    between atoms: _141  and  _143
REMARK   59  A    between atoms: _143  and  _144
REMARK   60  A    between atoms: _143  and  _146
REMARK   61  A    between atoms: _146  and  _147
REMARK   62  A    between atoms: _150  and  _152
REMARK   63  A    between atoms: _152  and  _153
REMARK   64  A    between atoms: _152  and  _155
REMARK   65  A    between atoms: _155  and  _156
REMARK   66  A    between atoms: _156  and  _157
REMARK   67  A    between atoms: _157  and  _158
REMARK   68  A    between atoms: _158  and  _159
REMARK   69  A    between atoms: _163  and  _165
REMARK   70  A    between atoms: _165  and  _166
REMARK   71  A    between atoms: _165  and  _168
REMARK   72  A    between atoms: _168  and  _169
REMARK   73  A    between atoms: _172  and  _174
REMARK   74  A    between atoms: _174  and  _175
REMARK   75  A    between atoms: _174  and  _177
REMARK   76  A    between atoms: _179  and  _181
REMARK   77  A    between atoms: _181  and  _182
REMARK   78  A    between atoms: _181  and  _184
REMARK   79  A    between atoms: _184  and  _185
REMARK   80  A    between atoms: _188  and  _190
REMARK   81  A    between atoms: _190  and  _191
REMARK   82  A    between atoms: _190  and  _193
REMARK   83  A    between atoms: _193  and  _194
REMARK   84  A    between atoms: _197  and  _199
REMARK   85  A    between atoms: _199  and  _200
REMARK   86  A    between atoms: _199  and  _202
REMARK   87  A    between atoms: _202  and  _203
REMARK   88  A    between atoms: _206  and  _208
REMARK   89  A    between atoms: _208  and  _209
REMARK   90  A    between atoms: _208  and  _211
REMARK   91  A    between atoms: _211  and  _212
REMARK   92  A    between atoms: _215  and  _217
REMARK   93  A    between atoms: _217  and  _218
REMARK   94  A    between atoms: _217  and  _220
REMARK   95  A    between atoms: _220  and  _221
REMARK   96  A    between atoms: _221  and  _222
REMARK   97  A    between atoms: _224  and  _226
REMARK   98  A    between atoms: _226  and  _227
REMARK   99  A    between atoms: _226  and  _229
REMARK  100  A    between atoms: _229  and  _230
REMARK  101  A    between atoms: _233  and  _235
REMARK  102  A    between atoms: _235  and  _236
REMARK  103  A    between atoms: _235  and  _238
REMARK  104  A    between atoms: _238  and  _239
REMARK  105  A    between atoms: _239  and  _240
REMARK  106  A    between atoms: _240  and  _241
REMARK  107  A    between atoms: _250  and  _252
REMARK  108  A    between atoms: _252  and  _253
REMARK  109  A    between atoms: _252  and  _255
REMARK  110  A    between atoms: _255  and  _256
REMARK  111  A    between atoms: _259  and  _261
REMARK  112  A    between atoms: _261  and  _262
REMARK  113  A    between atoms: _261  and  _264
REMARK  114  A    between atoms: _266  and  _268
REMARK  115  A    between atoms: _268  and  _269
REMARK  116  A    between atoms: _268  and  _271
REMARK  117  A    between atoms: _271  and  _272
REMARK  118  A    between atoms: _275  and  _277
REMARK  119  A    between atoms: _277  and  _278
REMARK  120  A    between atoms: _277  and  _280
REMARK  121  A    between atoms: _280  and  _281
REMARK  122  A    between atoms: _281  and  _282
REMARK  123  A    between atoms: _282  and  _283
REMARK  124  A    between atoms: _292  and  _294
REMARK  125  A    between atoms: _294  and  _295
REMARK  126  A    between atoms: _294  and  _297
REMARK  127  A    between atoms: _297  and  _298
REMARK  128  A    between atoms: _298  and  _299
REMARK  129  A    between atoms: _301  and  _303
REMARK  130  A    between atoms: _303  and  _304
REMARK  131  A    between atoms: _303  and  _306
REMARK  132  A    between atoms: _306  and  _307
REMARK  133  A    between atoms: _310  and  _312
REMARK  134  A    between atoms: _312  and  _313
REMARK  135  A    between atoms: _312  and  _315
REMARK  136  A    between atoms: _315  and  _316
REMARK  137  A    between atoms: _322  and  _324
REMARK  138  A    between atoms: _324  and  _325
REMARK  139  A    between atoms: _324  and  _327
REMARK  140  A    between atoms: _327  and  _328
REMARK  141  A    between atoms: _330  and  _332
REMARK  142  A    between atoms: _332  and  _333
REMARK  143  A    between atoms: _332  and  _335
REMARK  144  A    between atoms: _335  and  _336
REMARK  145  A    between atoms: _339  and  _341
REMARK  146  A    between atoms: _341  and  _342
REMARK  147  A    between atoms: _344  and  _346
REMARK  148  A    between atoms: _346  and  _347
REMARK  149  A    between atoms: _346  and  _349
REMARK  150  A    between atoms: _349  and  _350
REMARK  151  A    between atoms: _353  and  _355
REMARK  152  A    between atoms: _355  and  _356
REMARK  153  A    between atoms: _355  and  _358
REMARK  154  A    between atoms: _358  and  _359
REMARK  155  A    between atoms: _359  and  _360
REMARK  156  A    between atoms: _362  and  _364
REMARK  157  A    between atoms: _364  and  _365
REMARK  158  A    between atoms: _364  and  _367
REMARK  159  A    between atoms: _367  and  _368
REMARK  160  A    between atoms: _373  and  _375
REMARK  161  A    between atoms: _375  and  _376
REMARK  162  A    between atoms: _379  and  _381
REMARK  163  A    between atoms: _381  and  _382
REMARK  164  A    between atoms: _384  and  _386
REMARK  165  A    between atoms: _386  and  _387
REMARK  166  A    between atoms: _386  and  _389
REMARK  167  A    between atoms: _389  and  _390
REMARK  168  A    between atoms: _396  and  _398
REMARK  169  A    between atoms: _398  and  _399
REMARK  170  A    between atoms: _401  and  _403
REMARK  171  A    between atoms: _403  and  _404
REMARK  172  A    between atoms: _403  and  _406
REMARK  173  A    between atoms: _406  and  _407
REMARK  174  A    between atoms: _410  and  _412
REMARK  175  A    between atoms: _412  and  _413
REMARK  176  A    between atoms: _412  and  _415
REMARK  177  A    between atoms: _415  and  _416
REMARK  178  A    between atoms: _419  and  _421
REMARK  179  A    between atoms: _421  and  _422
REMARK  180  A    between atoms: _421  and  _424
REMARK  181  A    between atoms: _427  and  _429
REMARK  182  A    between atoms: _429  and  _430
REMARK  183  A    between atoms: _429  and  _432
REMARK  184  A    between atoms: _432  and  _433
REMARK  185  A    between atoms: _436  and  _438
REMARK  186  A    between atoms: _438  and  _439
REMARK  187  A    between atoms: _438  and  _441
REMARK  188  A    between atoms: _441  and  _442
REMARK  189  A    between atoms: _445  and  _447
REMARK  190  A    between atoms: _447  and  _448
REMARK  191  A    between atoms: _447  and  _450
REMARK  192  A    between atoms: _450  and  _451
REMARK  193  A    between atoms: _453  and  _455
REMARK  194  A    between atoms: _455  and  _456
REMARK  195  A    between atoms: _455  and  _458
REMARK  196  A    between atoms: _458  and  _459
REMARK  197  A    between atoms: _459  and  _460
REMARK  198  A    between atoms: _460  and  _461
REMARK  199  A    between atoms: _461  and  _462
REMARK  200  A    between atoms: _466  and  _468
REMARK  201  A    between atoms: _468  and  _469
REMARK  202  A    between atoms: _471  and  _473
REMARK  203  A    between atoms: _473  and  _474
REMARK  204  A    between atoms: _477  and  _479
REMARK  205  A    between atoms: _479  and  _480
REMARK  206  A    between atoms: _479  and  _482
REMARK  207  A    between atoms: _483  and  _484
REMARK  208  A    between atoms: _487  and  _489
REMARK  209  A    between atoms: _489  and  _490
REMARK  210  A    between atoms: _489  and  _492
REMARK  211  A    between atoms: _492  and  _493
REMARK  212  A    between atoms: _493  and  _494
REMARK  213  A    between atoms: _494  and  _495
REMARK  214  A    between atoms: _504  and  _506
REMARK  215  A    between atoms: _506  and  _507
REMARK  216  A    between atoms: _510  and  _512
REMARK  217  A    between atoms: _512  and  _513
REMARK  218  A    between atoms: _512  and  _515
REMARK  219  A    between atoms: _515  and  _516
REMARK  220  A    between atoms: _519  and  _521
REMARK  221  A    between atoms: _521  and  _522
REMARK  222  A    between atoms: _521  and  _524
REMARK  223  A    between atoms: _524  and  _525
REMARK  224  A    between atoms: _528  and  _530
REMARK  225  A    between atoms: _530  and  _531
REMARK  226  A    between atoms: _530  and  _533
REMARK  227  A    between atoms: _533  and  _534
REMARK  228  A    between atoms: _537  and  _539
REMARK  229  A    between atoms: _539  and  _540
REMARK  230  A    between atoms: _539  and  _542
REMARK  231  A    between atoms: _542  and  _543
REMARK  232  A    between atoms: _543  and  _544
REMARK  233  A    between atoms: _544  and  _545
REMARK  234  A    between atoms: _545  and  _546
REMARK  235  A    between atoms: _550  and  _552
REMARK  236  A    between atoms: _552  and  _553
REMARK  237  A    between atoms: _552  and  _555
REMARK  238  A    between atoms: _555  and  _556
REMARK  239  A    between atoms: _556  and  _557
REMARK  240  A    between atoms: _560  and  _561
REMARK  241  A    between atoms: _566  and  _568
REMARK  242  A    between atoms: _568  and  _569
REMARK  243  A    between atoms: _568  and  _571
REMARK  244  A    between atoms: _571  and  _572
REMARK  245  A    between atoms: _575  and  _577
REMARK  246  A    between atoms: _577  and  _578
REMARK  247  A    between atoms: _577  and  _580
REMARK  248  A    between atoms: _580  and  _581
REMARK  249  A    between atoms: _581  and  _582
REMARK  250  A    between atoms: _582  and  _583
REMARK  251  A    between atoms: _592  and  _594
REMARK  252  A    between atoms: _594  and  _595
REMARK  253  A    between atoms: _594  and  _597
REMARK  254  A    between atoms: _597  and  _598
REMARK  255  A    between atoms: _598  and  _599
REMARK  256  A    between atoms: _601  and  _603
REMARK  257  A    between atoms: _603  and  _604
REMARK  258  A    between atoms: _603  and  _606
REMARK  259  A    between atoms: _606  and  _607
REMARK                            x       y       z     vdW  Elec       q    Type
REMARK                         _______ _______ _______ _____ _____    ______ ____
ROOT
ATOM      1  O   HOH     1      35.711  21.686  91.545  0.00  0.00    +0.000 OA
ENDROOT
TORSDOF 0
REMARK  Name = ../refined-set-2016/1fcz/1fcz_pocket.pdb
REMARK  259 active torsions:
REMARK  status: ('A' for Active; 'I' for Inactive)
REMARK    1  A    between atoms: _1  and  _3
REMARK    2  A    between atoms: _3  and  _4
REMARK    3  A    between atoms: _3  and  _6
REMARK    4  A    between atoms: _6  and  _7
REMARK    5  A    between atoms: _10  and  _12
REMARK    6  A    between atoms: _12  and  _13
REMARK    7  A    between atoms: _12  and  _15
REMARK    8  A    between atoms: _15  and  _16
REMARK    9  A    between atoms: _23  and  _24
REMARK   10  A    between atoms: _29  and  _31
REMARK   11  A    between atoms: _31  and  _32
REMARK   12  A    between atoms: _31  and  _34
REMARK   13  A    between atoms: _34  and  _35
REMARK   14  A    between atoms: _38  and  _40
REMARK   15  A    between atoms: _40  and  _41
REMARK   16  A    between atoms: _40  and  _43
REMARK   17  A    between atoms: _43  and  _44
REMARK   18  A    between atoms: _54  and  _56
REMARK   19  A    between atoms: _56  and  _57
REMARK   20  A    between atoms: _56  and  _59
REMARK   21  A    between atoms: _59  and  _60
REMARK   22  A    between atoms: _60  and  _61
REMARK   23  A    between atoms: _61  and  _62
REMARK   24  A    between atoms: _62  and  _63
REMARK   25  A    between atoms: _67  and  _69
REMARK   26  A    between atoms: _69  and  _70
REMARK   27  A    between atoms: _69  and  _72
REMARK   28  A    between atoms: _72  and  _73
REMARK   29  A    between atoms: _79  and  _81
REMARK   30  A    between atoms: _81  and  _82
REMARK   31  A    between atoms: _81  and  _84
REMARK   32  A    between atoms: _84  and  _85
REMARK   33  A    between atoms: _87  and  _89
REMARK   34  A    between atoms: _89  and  _90
REMARK   35  A    between atoms: _89  and  _92
REMARK   36  A    between atoms: _92  and  _93
REMARK   37  A    between atoms: _93  and  _94
REMARK   38  A    between atoms: _97  and  _99
REMARK   39  A    between atoms: _99  and  _100
REMARK   40  A    between atoms: _99  and  _102
REMARK   41  A    between atoms: _102  and  _103
REMARK   42  A    between atoms: _106  and  _108
REMARK   43  A    between atoms: _108  and  _109
REMARK   44  A    between atoms: _112  and  _114
REMARK   45  A    between atoms: _114  and  _115
REMARK   46  A    between atoms: _114  and  _117
REMARK   47  A    between atoms: _117  and  _118
REMARK   48  A    between atoms: _121  and  _123
REMARK   49  A    between atoms: _123  and  _124
REMARK   50  A    between atoms: _123  and  _126
REMARK   51  A    between atoms: _126  and  _127
REMARK   52  A    between atoms: _127  and  _128
REMARK   53  A    between atoms: _128  and  _129
REMARK   54  A    between atoms: _129  and  _130
REMARK   55  A    between atoms: _134  and  _136
REMARK   56  A    between atoms: _136  and  _137
REMARK   57  A    between atoms: _136  and  _139
REMARK   58  A    between atoms: _141  and  _143
REMARK   59  A    between atoms: _143  and  _144
REMARK   60  A    between atoms: _143  and  _146
REMARK   61  A    between atoms: _146  and  _147
REMARK   62  A    between atoms: _150  and  _152
REMARK   63  A    between atoms: _152  and  _153
REMARK   64  A    between atoms: _152  and  _155
REMARK   65  A    between atoms: _155  and  _156
REMARK   66  A    between atoms: _156  and  _157
REMARK   67  A    between atoms: _157  and  _158
REMARK   68  A    between atoms: _158  and  _159
REMARK   69  A    between atoms: _163  and  _165
REMARK   70  A    between atoms: _165  and  _166
REMARK   71  A    between atoms: _165  and  _168
REMARK   72  A    between atoms: _168  and  _169
REMARK   73  A    between atoms: _172  and  _174
REMARK   74  A    between atoms: _174  and  _175
REMARK   75  A    between atoms: _174  and  _177
REMARK   76  A    between atoms: _179  and  _181
REMARK   77  A    between atoms: _181  and  _182
REMARK   78  A    between atoms: _181  and  _184
REMARK   79  A    between atoms: _184  and  _185
REMARK   80  A    between atoms: _188  and  _190
REMARK   81  A    between atoms: _190  and  _191
REMARK   82  A    between atoms: _190  and  _193
REMARK   83  A    between atoms: _193  and  _194
REMARK   84  A    between atoms: _197  and  _199
REMARK   85  A    between atoms: _199  and  _200
REMARK   86  A    between atoms: _199  and  _202
REMARK   87  A    between atoms: _202  and  _203
REMARK   88  A    between atoms: _206  and  _208
REMARK   89  A    between atoms: _208  and  _209
REMARK   90  A    between atoms: _208  and  _211
REMARK   91  A    between atoms: _211  and  _212
REMARK   92  A    between atoms: _215  and  _217
REMARK   93  A    between atoms: _217  and  _218
REMARK   94  A    between atoms: _217  and  _220
REMARK   95  A    between atoms: _220  and  _221
REMARK   96  A    between atoms: _221  and  _222
REMARK   97  A    between atoms: _224  and  _226
REMARK   98  A    between atoms: _226  and  _227
REMARK   99  A    between atoms: _226  and  _229
REMARK  100  A    between atoms: _229  and  _230
REMARK  101  A    between atoms: _233  and  _235
REMARK  102  A    between atoms: _235  and  _236
REMARK  103  A    between atoms: _235  and  _238
REMARK  104  A    between atoms: _238  and  _239
REMARK  105  A    between atoms: _239  and  _240
REMARK  106  A    between atoms: _240  and  _241
REMARK  107  A    between atoms: _250  and  _252
REMARK  108  A    between atoms: _252  and  _253
REMARK  109  A    between atoms: _252  and  _255
REMARK  110  A    between atoms: _255  and  _256
REMARK  111  A    between atoms: _259  and  _261
REMARK  112  A    between atoms: _261  and  _262
REMARK  113  A    between atoms: _261  and  _264
REMARK  114  A    between atoms: _266  and  _268
REMARK  115  A    between atoms: _268  and  _269
REMARK  116  A    between atoms: _268  and  _271
REMARK  117  A    between atoms: _271  and  _272
REMARK  118  A    between atoms: _275  and  _277
REMARK  119  A    between atoms: _277  and  _278
REMARK  120  A    between atoms: _277  and  _280
REMARK  121  A    between atoms: _280  and  _281
REMARK  122  A    between atoms: _281  and  _282
REMARK  123  A    between atoms: _282  and  _283
REMARK  124  A    between atoms: _292  and  _294
REMARK  125  A    between atoms: _294  and  _295
REMARK  126  A    between atoms: _294  and  _297
REMARK  127  A    between atoms: _297  and  _298
REMARK  128  A    between atoms: _298  and  _299
REMARK  129  A    between atoms: _301  and  _303
REMARK  130  A    between atoms: _303  and  _304
REMARK  131  A    between atoms: _303  and  _306
REMARK  132  A    between atoms: _306  and  _307
REMARK  133  A    between atoms: _310  and  _312
REMARK  134  A    between atoms: _312  and  _313
REMARK  135  A    between atoms: _312  and  _315
REMARK  136  A    between atoms: _315  and  _316
REMARK  137  A    between atoms: _322  and  _324
REMARK  138  A    between atoms: _324  and  _325
REMARK  139  A    between atoms: _324  and  _327
REMARK  140  A    between atoms: _327  and  _328
REMARK  141  A    between atoms: _330  and  _332
REMARK  142  A    between atoms: _332  and  _333
REMARK  143  A    between atoms: _332  and  _335
REMARK  144  A    between atoms: _335  and  _336
REMARK  145  A    between atoms: _339  and  _341
REMARK  146  A    between atoms: _341  and  _342
REMARK  147  A    between atoms: _344  and  _346
REMARK  148  A    between atoms: _346  and  _347
REMARK  149  A    between atoms: _346  and  _349
REMARK  150  A    between atoms: _349  and  _350
REMARK  151  A    between atoms: _353  and  _355
REMARK  152  A    between atoms: _355  and  _356
REMARK  153  A    between atoms: _355  and  _358
REMARK  154  A    between atoms: _358  and  _359
REMARK  155  A    between atoms: _359  and  _360
REMARK  156  A    between atoms: _362  and  _364
REMARK  157  A    between atoms: _364  and  _365
REMARK  158  A    between atoms: _364  and  _367
REMARK  159  A    between atoms: _367  and  _368
REMARK  160  A    between atoms: _373  and  _375
REMARK  161  A    between atoms: _375  and  _376
REMARK  162  A    between atoms: _379  and  _381
REMARK  163  A    between atoms: _381  and  _382
REMARK  164  A    between atoms: _384  and  _386
REMARK  165  A    between atoms: _386  and  _387
REMARK  166  A    between atoms: _386  and  _389
REMARK  167  A    between atoms: _389  and  _390
REMARK  168  A    between atoms: _396  and  _398
REMARK  169  A    between atoms: _398  and  _399
REMARK  170  A    between atoms: _401  and  _403
REMARK  171  A    between atoms: _403  and  _404
REMARK  172  A    between atoms: _403  and  _406
REMARK  173  A    between atoms: _406  and  _407
REMARK  174  A    between atoms: _410  and  _412
REMARK  175  A    between atoms: _412  and  _413
REMARK  176  A    between atoms: _412  and  _415
REMARK  177  A    between atoms: _415  and  _416
REMARK  178  A    between atoms: _419  and  _421
REMARK  179  A    between atoms: _421  and  _422
REMARK  180  A    between atoms: _421  and  _424
REMARK  181  A    between atoms: _427  and  _429
REMARK  182  A    between atoms: _429  and  _430
REMARK  183  A    between atoms: _429  and  _432
REMARK  184  A    between atoms: _432  and  _433
REMARK  185  A    between atoms: _436  and  _438
REMARK  186  A    between atoms: _438  and  _439
REMARK  187  A    between atoms: _438  and  _441
REMARK  188  A    between atoms: _441  and  _442
REMARK  189  A    between atoms: _445  and  _447
REMARK  190  A    between atoms: _447  and  _448
REMARK  191  A    between atoms: _447  and  _450
REMARK  192  A    between atoms: _450  and  _451
REMARK  193  A    between atoms: _453  and  _455
REMARK  194  A    between atoms: _455  and  _456
REMARK  195  A    between atoms: _455  and  _458
REMARK  196  A    between atoms: _458  and  _459
REMARK  197  A    between atoms: _459  and  _460
REMARK  198  A    between atoms: _460  and  _461
REMARK  199  A    between atoms: _461  and  _462
REMARK  200  A    between atoms: _466  and  _468
REMARK  201  A    between atoms: _468  and  _469
REMARK  202  A    between atoms: _471  and  _473
REMARK  203  A    between atoms: _473  and  _474
REMARK  204  A    between atoms: _477  and  _479
REMARK  205  A    between atoms: _479  and  _480
REMARK  206  A    between atoms: _479  and  _482
REMARK  207  A    between atoms: _483  and  _484
REMARK  208  A    between atoms: _487  and  _489
REMARK  209  A    between atoms: _489  and  _490
REMARK  210  A    between atoms: _489  and  _492
REMARK  211  A    between atoms: _492  and  _493
REMARK  212  A    between atoms: _493  and  _494
REMARK  213  A    between atoms: _494  and  _495
REMARK  214  A    between atoms: _504  and  _506
REMARK  215  A    between atoms: _506  and  _507
REMARK  216  A    between atoms: _510  and  _512
REMARK  217  A    between atoms: _512  and  _513
REMARK  218  A    between atoms: _512  and  _515
REMARK  219  A    between atoms: _515  and  _516
REMARK  220  A    between atoms: _519  and  _521
REMARK  221  A    between atoms: _521  and  _522
REMARK  222  A    between atoms: _521  and  _524
REMARK  223  A    between atoms: _524  and  _525
REMARK  224  A    between atoms: _528  and  _530
REMARK  225  A    between atoms: _530  and  _531
REMARK  226  A    between atoms: _530  and  _533
REMARK  227  A    between atoms: _533  and  _534
REMARK  228  A    between atoms: _537  and  _539
REMARK  229  A    between atoms: _539  and  _540
REMARK  230  A    between atoms: _539  and  _542
REMARK  231  A    between atoms: _542  and  _543
REMARK  232  A    between atoms: _543  and  _544
REMARK  233  A    between atoms: _544  and  _545
REMARK  234  A    between atoms: _545  and  _546
REMARK  235  A    between atoms: _550  and  _552
REMARK  236  A    between atoms: _552  and  _553
REMARK  237  A    between atoms: _552  and  _555
REMARK  238  A    between atoms: _555  and  _556
REMARK  239  A    between atoms: _556  and  _557
REMARK  240  A    between atoms: _560  and  _561
REMARK  241  A    between atoms: _566  and  _568
REMARK  242  A    between atoms: _568  and  _569
REMARK  243  A    between atoms: _568  and  _571
REMARK  244  A    between atoms: _571  and  _572
REMARK  245  A    between atoms: _575  and  _577
REMARK  246  A    between atoms: _577  and  _578
REMARK  247  A    between atoms: _577  and  _580
REMARK  248  A    between atoms: _580  and  _581
REMARK  249  A    between atoms: _581  and  _582
REMARK  250  A    between atoms: _582  and  _583
REMARK  251  A    between atoms: _592  and  _594
REMARK  252  A    between atoms: _594  and  _595
REMARK  253  A    between atoms: _594  and  _597
REMARK  254  A    between atoms: _597  and  _598
REMARK  255  A    between atoms: _598  and  _599
REMARK  256  A    between atoms: _601  and  _603
REMARK  257  A    between atoms: _603  and  _604
REMARK  258  A    between atoms: _603  and  _606
REMARK  259  A    between atoms: _606  and  _607
REMARK                            x       y       z     vdW  Elec       q    Type
REMARK                         _______ _______ _______ _____ _____    ______ ____
ROOT
ATOM      1  O   HOH     1      52.447  11.656  84.974  0.00  0.00    +0.000 OA
ENDROOT
TORSDOF 0
REMARK  Name = ../refined-set-2016/1fcz/1fcz_pocket.pdb
REMARK  259 active torsions:
REMARK  status: ('A' for Active; 'I' for Inactive)
REMARK    1  A    between atoms: _1  and  _3
REMARK    2  A    between atoms: _3  and  _4
REMARK    3  A    between atoms: _3  and  _6
REMARK    4  A    between atoms: _6  and  _7
REMARK    5  A    between atoms: _10  and  _12
REMARK    6  A    between atoms: _12  and  _13
REMARK    7  A    between atoms: _12  and  _15
REMARK    8  A    between atoms: _15  and  _16
REMARK    9  A    between atoms: _23  and  _24
REMARK   10  A    between atoms: _29  and  _31
REMARK   11  A    between atoms: _31  and  _32
REMARK   12  A    between atoms: _31  and  _34
REMARK   13  A    between atoms: _34  and  _35
REMARK   14  A    between atoms: _38  and  _40
REMARK   15  A    between atoms: _40  and  _41
REMARK   16  A    between atoms: _40  and  _43
REMARK   17  A    between atoms: _43  and  _44
REMARK   18  A    between atoms: _54  and  _56
REMARK   19  A    between atoms: _56  and  _57
REMARK   20  A    between atoms: _56  and  _59
REMARK   21  A    between atoms: _59  and  _60
REMARK   22  A    between atoms: _60  and  _61
REMARK   23  A    between atoms: _61  and  _62
REMARK   24  A    between atoms: _62  and  _63
REMARK   25  A    between atoms: _67  and  _69
REMARK   26  A    between atoms: _69  and  _70
REMARK   27  A    between atoms: _69  and  _72
REMARK   28  A    between atoms: _72  and  _73
REMARK   29  A    between atoms: _79  and  _81
REMARK   30  A    between atoms: _81  and  _82
REMARK   31  A    between atoms: _81  and  _84
REMARK   32  A    between atoms: _84  and  _85
REMARK   33  A    between atoms: _87  and  _89
REMARK   34  A    between atoms: _89  and  _90
REMARK   35  A    between atoms: _89  and  _92
REMARK   36  A    between atoms: _92  and  _93
REMARK   37  A    between atoms: _93  and  _94
REMARK   38  A    between atoms: _97  and  _99
REMARK   39  A    between atoms: _99  and  _100
REMARK   40  A    between atoms: _99  and  _102
REMARK   41  A    between atoms: _102  and  _103
REMARK   42  A    between atoms: _106  and  _108
REMARK   43  A    between atoms: _108  and  _109
REMARK   44  A    between atoms: _112  and  _114
REMARK   45  A    between atoms: _114  and  _115
REMARK   46  A    between atoms: _114  and  _117
REMARK   47  A    between atoms: _117  and  _118
REMARK   48  A    between atoms: _121  and  _123
REMARK   49  A    between atoms: _123  and  _124
REMARK   50  A    between atoms: _123  and  _126
REMARK   51  A    between atoms: _126  and  _127
REMARK   52  A    between atoms: _127  and  _128
REMARK   53  A    between atoms: _128  and  _129
REMARK   54  A    between atoms: _129  and  _130
REMARK   55  A    between atoms: _134  and  _136
REMARK   56  A    between atoms: _136  and  _137
REMARK   57  A    between atoms: _136  and  _139
REMARK   58  A    between atoms: _141  and  _143
REMARK   59  A    between atoms: _143  and  _144
REMARK   60  A    between atoms: _143  and  _146
REMARK   61  A    between atoms: _146  and  _147
REMARK   62  A    between atoms: _150  and  _152
REMARK   63  A    between atoms: _152  and  _153
REMARK   64  A    between atoms: _152  and  _155
REMARK   65  A    between atoms: _155  and  _156
REMARK   66  A    between atoms: _156  and  _157
REMARK   67  A    between atoms: _157  and  _158
REMARK   68  A    between atoms: _158  and  _159
REMARK   69  A    between atoms: _163  and  _165
REMARK   70  A    between atoms: _165  and  _166
REMARK   71  A    between atoms: _165  and  _168
REMARK   72  A    between atoms: _168  and  _169
REMARK   73  A    between atoms: _172  and  _174
REMARK   74  A    between atoms: _174  and  _175
REMARK   75  A    between atoms: _174  and  _177
REMARK   76  A    between atoms: _179  and  _181
REMARK   77  A    between atoms: _181  and  _182
REMARK   78  A    between atoms: _181  and  _184
REMARK   79  A    between atoms: _184  and  _185
REMARK   80  A    between atoms: _188  and  _190
REMARK   81  A    between atoms: _190  and  _191
REMARK   82  A    between atoms: _190  and  _193
REMARK   83  A    between atoms: _193  and  _194
REMARK   84  A    between atoms: _197  and  _199
REMARK   85  A    between atoms: _199  and  _200
REMARK   86  A    between atoms: _199  and  _202
REMARK   87  A    between atoms: _202  and  _203
REMARK   88  A    between atoms: _206  and  _208
REMARK   89  A    between atoms: _208  and  _209
REMARK   90  A    between atoms: _208  and  _211
REMARK   91  A    between atoms: _211  and  _212
REMARK   92  A    between atoms: _215  and  _217
REMARK   93  A    between atoms: _217  and  _218
REMARK   94  A    between atoms: _217  and  _220
REMARK   95  A    between atoms: _220  and  _221
REMARK   96  A    between atoms: _221  and  _222
REMARK   97  A    between atoms: _224  and  _226
REMARK   98  A    between atoms: _226  and  _227
REMARK   99  A    between atoms: _226  and  _229
REMARK  100  A    between atoms: _229  and  _230
REMARK  101  A    between atoms: _233  and  _235
REMARK  102  A    between atoms: _235  and  _236
REMARK  103  A    between atoms: _235  and  _238
REMARK  104  A    between atoms: _238  and  _239
REMARK  105  A    between atoms: _239  and  _240
REMARK  106  A    between atoms: _240  and  _241
REMARK  107  A    between atoms: _250  and  _252
REMARK  108  A    between atoms: _252  and  _253
REMARK  109  A    between atoms: _252  and  _255
REMARK  110  A    between atoms: _255  and  _256
REMARK  111  A    between atoms: _259  and  _261
REMARK  112  A    between atoms: _261  and  _262
REMARK  113  A    between atoms: _261  and  _264
REMARK  114  A    between atoms: _266  and  _268
REMARK  115  A    between atoms: _268  and  _269
REMARK  116  A    between atoms: _268  and  _271
REMARK  117  A    between atoms: _271  and  _272
REMARK  118  A    between atoms: _275  and  _277
REMARK  119  A    between atoms: _277  and  _278
REMARK  120  A    between atoms: _277  and  _280
REMARK  121  A    between atoms: _280  and  _281
REMARK  122  A    between atoms: _281  and  _282
REMARK  123  A    between atoms: _282  and  _283
REMARK  124  A    between atoms: _292  and  _294
REMARK  125  A    between atoms: _294  and  _295
REMARK  126  A    between atoms: _294  and  _297
REMARK  127  A    between atoms: _297  and  _298
REMARK  128  A    between atoms: _298  and  _299
REMARK  129  A    between atoms: _301  and  _303
REMARK  130  A    between atoms: _303  and  _304
REMARK  131  A    between atoms: _303  and  _306
REMARK  132  A    between atoms: _306  and  _307
REMARK  133  A    between atoms: _310  and  _312
REMARK  134  A    between atoms: _312  and  _313
REMARK  135  A    between atoms: _312  and  _315
REMARK  136  A    between atoms: _315  and  _316
REMARK  137  A    between atoms: _322  and  _324
REMARK  138  A    between atoms: _324  and  _325
REMARK  139  A    between atoms: _324  and  _327
REMARK  140  A    between atoms: _327  and  _328
REMARK  141  A    between atoms: _330  and  _332
REMARK  142  A    between atoms: _332  and  _333
REMARK  143  A    between atoms: _332  and  _335
REMARK  144  A    between atoms: _335  and  _336
REMARK  145  A    between atoms: _339  and  _341
REMARK  146  A    between atoms: _341  and  _342
REMARK  147  A    between atoms: _344  and  _346
REMARK  148  A    between atoms: _346  and  _347
REMARK  149  A    between atoms: _346  and  _349
REMARK  150  A    between atoms: _349  and  _350
REMARK  151  A    between atoms: _353  and  _355
REMARK  152  A    between atoms: _355  and  _356
REMARK  153  A    between atoms: _355  and  _358
REMARK  154  A    between atoms: _358  and  _359
REMARK  155  A    between atoms: _359  and  _360
REMARK  156  A    between atoms: _362  and  _364
REMARK  157  A    between atoms: _364  and  _365
REMARK  158  A    between atoms: _364  and  _367
REMARK  159  A    between atoms: _367  and  _368
REMARK  160  A    between atoms: _373  and  _375
REMARK  161  A    between atoms: _375  and  _376
REMARK  162  A    between atoms: _379  and  _381
REMARK  163  A    between atoms: _381  and  _382
REMARK  164  A    between atoms: _384  and  _386
REMARK  165  A    between atoms: _386  and  _387
REMARK  166  A    between atoms: _386  and  _389
REMARK  167  A    between atoms: _389  and  _390
REMARK  168  A    between atoms: _396  and  _398
REMARK  169  A    between atoms: _398  and  _399
REMARK  170  A    between atoms: _401  and  _403
REMARK  171  A    between atoms: _403  and  _404
REMARK  172  A    between atoms: _403  and  _406
REMARK  173  A    between atoms: _406  and  _407
REMARK  174  A    between atoms: _410  and  _412
REMARK  175  A    between atoms: _412  and  _413
REMARK  176  A    between atoms: _412  and  _415
REMARK  177  A    between atoms: _415  and  _416
REMARK  178  A    between atoms: _419  and  _421
REMARK  179  A    between atoms: _421  and  _422
REMARK  180  A    between atoms: _421  and  _424
REMARK  181  A    between atoms: _427  and  _429
REMARK  182  A    between atoms: _429  and  _430
REMARK  183  A    between atoms: _429  and  _432
REMARK  184  A    between atoms: _432  and  _433
REMARK  185  A    between atoms: _436  and  _438
REMARK  186  A    between atoms: _438  and  _439
REMARK  187  A    between atoms: _438  and  _441
REMARK  188  A    between atoms: _441  and  _442
REMARK  189  A    between atoms: _445  and  _447
REMARK  190  A    between atoms: _447  and  _448
REMARK  191  A    between atoms: _447  and  _450
REMARK  192  A    between atoms: _450  and  _451
REMARK  193  A    between atoms: _453  and  _455
REMARK  194  A    between atoms: _455  and  _456
REMARK  195  A    between atoms: _455  and  _458
REMARK  196  A    between atoms: _458  and  _459
REMARK  197  A    between atoms: _459  and  _460
REMARK  198  A    between atoms: _460  and  _461
REMARK  199  A    between atoms: _461  and  _462
REMARK  200  A    between atoms: _466  and  _468
REMARK  201  A    between atoms: _468  and  _469
REMARK  202  A    between atoms: _471  and  _473
REMARK  203  A    between atoms: _473  and  _474
REMARK  204  A    between atoms: _477  and  _479
REMARK  205  A    between atoms: _479  and  _480
REMARK  206  A    between atoms: _479  and  _482
REMARK  207  A    between atoms: _483  and  _484
REMARK  208  A    between atoms: _487  and  _489
REMARK  209  A    between atoms: _489  and  _490
REMARK  210  A    between atoms: _489  and  _492
REMARK  211  A    between atoms: _492  and  _493
REMARK  212  A    between atoms: _493  and  _494
REMARK  213  A    between atoms: _494  and  _495
REMARK  214  A    between atoms: _504  and  _506
REMARK  215  A    between atoms: _506  and  _507
REMARK  216  A    between atoms: _510  and  _512
REMARK  217  A    between atoms: _512  and  _513
REMARK  218  A    between atoms: _512  and  _515
REMARK  219  A    between atoms: _515  and  _516
REMARK  220  A    between atoms: _519  and  _521
REMARK  221  A    between atoms: _521  and  _522
REMARK  222  A    between atoms: _521  and  _524
REMARK  223  A    between atoms: _524  and  _525
REMARK  224  A    between atoms: _528  and  _530
REMARK  225  A    between atoms: _530  and  _531
REMARK  226  A    between atoms: _530  and  _533
REMARK  227  A    between atoms: _533  and  _534
REMARK  228  A    between atoms: _537  and  _539
REMARK  229  A    between atoms: _539  and  _540
REMARK  230  A    between atoms: _539  and  _542
REMARK  231  A    between atoms: _542  and  _543
REMARK  232  A    between atoms: _543  and  _544
REMARK  233  A    between atoms: _544  and  _545
REMARK  234  A    between atoms: _545  and  _546
REMARK  235  A    between atoms: _550  and  _552
REMARK  236  A    between atoms: _552  and  _553
REMARK  237  A    between atoms: _552  and  _555
REMARK  238  A    between atoms: _555  and  _556
REMARK  239  A    between atoms: _556  and  _557
REMARK  240  A    between atoms: _560  and  _561
REMARK  241  A    between atoms: _566  and  _568
REMARK  242  A    between atoms: _568  and  _569
REMARK  243  A    between atoms: _568  and  _571
REMARK  244  A    between atoms: _571  and  _572
REMARK  245  A    between atoms: _575  and  _577
REMARK  246  A    between atoms: _577  and  _578
REMARK  247  A    between atoms: _577  and  _580
REMARK  248  A    between atoms: _580  and  _581
REMARK  249  A    between atoms: _581  and  _582
REMARK  250  A    between atoms: _582  and  _583
REMARK  251  A    between atoms: _592  and  _594
REMARK  252  A    between atoms: _594  and  _595
REMARK  253  A    between atoms: _594  and  _597
REMARK  254  A    between atoms: _597  and  _598
REMARK  255  A    between atoms: _598  and  _599
REMARK  256  A    between atoms: _601  and  _603
REMARK  257  A    between atoms: _603  and  _604
REMARK  258  A    between atoms: _603  and  _606
REMARK  259  A    between atoms: _606  and  _607
REMARK                            x       y       z     vdW  Elec       q    Type
REMARK                         _______ _______ _______ _____ _____    ______ ____
ROOT
ATOM      1  O   HOH     1      32.476  22.440  93.703  0.00  0.00    +0.000 OA
ENDROOT
TORSDOF 0
REMARK  Name = ../refined-set-2016/1fcz/1fcz_pocket.pdb
REMARK  259 active torsions:
REMARK  status: ('A' for Active; 'I' for Inactive)
REMARK    1  A    between atoms: _1  and  _3
REMARK    2  A    between atoms: _3  and  _4
REMARK    3  A    between atoms: _3  and  _6
REMARK    4  A    between atoms: _6  and  _7
REMARK    5  A    between atoms: _10  and  _12
REMARK    6  A    between atoms: _12  and  _13
REMARK    7  A    between atoms: _12  and  _15
REMARK    8  A    between atoms: _15  and  _16
REMARK    9  A    between atoms: _23  and  _24
REMARK   10  A    between atoms: _29  and  _31
REMARK   11  A    between atoms: _31  and  _32
REMARK   12  A    between atoms: _31  and  _34
REMARK   13  A    between atoms: _34  and  _35
REMARK   14  A    between atoms: _38  and  _40
REMARK   15  A    between atoms: _40  and  _41
REMARK   16  A    between atoms: _40  and  _43
REMARK   17  A    between atoms: _43  and  _44
REMARK   18  A    between atoms: _54  and  _56
REMARK   19  A    between atoms: _56  and  _57
REMARK   20  A    between atoms: _56  and  _59
REMARK   21  A    between atoms: _59  and  _60
REMARK   22  A    between atoms: _60  and  _61
REMARK   23  A    between atoms: _61  and  _62
REMARK   24  A    between atoms: _62  and  _63
REMARK   25  A    between atoms: _67  and  _69
REMARK   26  A    between atoms: _69  and  _70
REMARK   27  A    between atoms: _69  and  _72
REMARK   28  A    between atoms: _72  and  _73
REMARK   29  A    between atoms: _79  and  _81
REMARK   30  A    between atoms: _81  and  _82
REMARK   31  A    between atoms: _81  and  _84
REMARK   32  A    between atoms: _84  and  _85
REMARK   33  A    between atoms: _87  and  _89
REMARK   34  A    between atoms: _89  and  _90
REMARK   35  A    between atoms: _89  and  _92
REMARK   36  A    between atoms: _92  and  _93
REMARK   37  A    between atoms: _93  and  _94
REMARK   38  A    between atoms: _97  and  _99
REMARK   39  A    between atoms: _99  and  _100
REMARK   40  A    between atoms: _99  and  _102
REMARK   41  A    between atoms: _102  and  _103
REMARK   42  A    between atoms: _106  and  _108
REMARK   43  A    between atoms: _108  and  _109
REMARK   44  A    between atoms: _112  and  _114
REMARK   45  A    between atoms: _114  and  _115
REMARK   46  A    between atoms: _114  and  _117
REMARK   47  A    between atoms: _117  and  _118
REMARK   48  A    between atoms: _121  and  _123
REMARK   49  A    between atoms: _123  and  _124
REMARK   50  A    between atoms: _123  and  _126
REMARK   51  A    between atoms: _126  and  _127
REMARK   52  A    between atoms: _127  and  _128
REMARK   53  A    between atoms: _128  and  _129
REMARK   54  A    between atoms: _129  and  _130
REMARK   55  A    between atoms: _134  and  _136
REMARK   56  A    between atoms: _136  and  _137
REMARK   57  A    between atoms: _136  and  _139
REMARK   58  A    between atoms: _141  and  _143
REMARK   59  A    between atoms: _143  and  _144
REMARK   60  A    between atoms: _143  and  _146
REMARK   61  A    between atoms: _146  and  _147
REMARK   62  A    between atoms: _150  and  _152
REMARK   63  A    between atoms: _152  and  _153
REMARK   64  A    between atoms: _152  and  _155
REMARK   65  A    between atoms: _155  and  _156
REMARK   66  A    between atoms: _156  and  _157
REMARK   67  A    between atoms: _157  and  _158
REMARK   68  A    between atoms: _158  and  _159
REMARK   69  A    between atoms: _163  and  _165
REMARK   70  A    between atoms: _165  and  _166
REMARK   71  A    between atoms: _165  and  _168
REMARK   72  A    between atoms: _168  and  _169
REMARK   73  A    between atoms: _172  and  _174
REMARK   74  A    between atoms: _174  and  _175
REMARK   75  A    between atoms: _174  and  _177
REMARK   76  A    between atoms: _179  and  _181
REMARK   77  A    between atoms: _181  and  _182
REMARK   78  A    between atoms: _181  and  _184
REMARK   79  A    between atoms: _184  and  _185
REMARK   80  A    between atoms: _188  and  _190
REMARK   81  A    between atoms: _190  and  _191
REMARK   82  A    between atoms: _190  and  _193
REMARK   83  A    between atoms: _193  and  _194
REMARK   84  A    between atoms: _197  and  _199
REMARK   85  A    between atoms: _199  and  _200
REMARK   86  A    between atoms: _199  and  _202
REMARK   87  A    between atoms: _202  and  _203
REMARK   88  A    between atoms: _206  and  _208
REMARK   89  A    between atoms: _208  and  _209
REMARK   90  A    between atoms: _208  and  _211
REMARK   91  A    between atoms: _211  and  _212
REMARK   92  A    between atoms: _215  and  _217
REMARK   93  A    between atoms: _217  and  _218
REMARK   94  A    between atoms: _217  and  _220
REMARK   95  A    between atoms: _220  and  _221
REMARK   96  A    between atoms: _221  and  _222
REMARK   97  A    between atoms: _224  and  _226
REMARK   98  A    between atoms: _226  and  _227
REMARK   99  A    between atoms: _226  and  _229
REMARK  100  A    between atoms: _229  and  _230
REMARK  101  A    between atoms: _233  and  _235
REMARK  102  A    between atoms: _235  and  _236
REMARK  103  A    between atoms: _235  and  _238
REMARK  104  A    between atoms: _238  and  _239
REMARK  105  A    between atoms: _239  and  _240
REMARK  106  A    between atoms: _240  and  _241
REMARK  107  A    between atoms: _250  and  _252
REMARK  108  A    between atoms: _252  and  _253
REMARK  109  A    between atoms: _252  and  _255
REMARK  110  A    between atoms: _255  and  _256
REMARK  111  A    between atoms: _259  and  _261
REMARK  112  A    between atoms: _261  and  _262
REMARK  113  A    between atoms: _261  and  _264
REMARK  114  A    between atoms: _266  and  _268
REMARK  115  A    between atoms: _268  and  _269
REMARK  116  A    between atoms: _268  and  _271
REMARK  117  A    between atoms: _271  and  _272
REMARK  118  A    between atoms: _275  and  _277
REMARK  119  A    between atoms: _277  and  _278
REMARK  120  A    between atoms: _277  and  _280
REMARK  121  A    between atoms: _280  and  _281
REMARK  122  A    between atoms: _281  and  _282
REMARK  123  A    between atoms: _282  and  _283
REMARK  124  A    between atoms: _292  and  _294
REMARK  125  A    between atoms: _294  and  _295
REMARK  126  A    between atoms: _294  and  _297
REMARK  127  A    between atoms: _297  and  _298
REMARK  128  A    between atoms: _298  and  _299
REMARK  129  A    between atoms: _301  and  _303
REMARK  130  A    between atoms: _303  and  _304
REMARK  131  A    between atoms: _303  and  _306
REMARK  132  A    between atoms: _306  and  _307
REMARK  133  A    between atoms: _310  and  _312
REMARK  134  A    between atoms: _312  and  _313
REMARK  135  A    between atoms: _312  and  _315
REMARK  136  A    between atoms: _315  and  _316
REMARK  137  A    between atoms: _322  and  _324
REMARK  138  A    between atoms: _324  and  _325
REMARK  139  A    between atoms: _324  and  _327
REMARK  140  A    between atoms: _327  and  _328
REMARK  141  A    between atoms: _330  and  _332
REMARK  142  A    between atoms: _332  and  _333
REMARK  143  A    between atoms: _332  and  _335
REMARK  144  A    between atoms: _335  and  _336
REMARK  145  A    between atoms: _339  and  _341
REMARK  146  A    between atoms: _341  and  _342
REMARK  147  A    between atoms: _344  and  _346
REMARK  148  A    between atoms: _346  and  _347
REMARK  149  A    between atoms: _346  and  _349
REMARK  150  A    between atoms: _349  and  _350
REMARK  151  A    between atoms: _353  and  _355
REMARK  152  A    between atoms: _355  and  _356
REMARK  153  A    between atoms: _355  and  _358
REMARK  154  A    between atoms: _358  and  _359
REMARK  155  A    between atoms: _359  and  _360
REMARK  156  A    between atoms: _362  and  _364
REMARK  157  A    between atoms: _364  and  _365
REMARK  158  A    between atoms: _364  and  _367
REMARK  159  A    between atoms: _367  and  _368
REMARK  160  A    between atoms: _373  and  _375
REMARK  161  A    between atoms: _375  and  _376
REMARK  162  A    between atoms: _379  and  _381
REMARK  163  A    between atoms: _381  and  _382
REMARK  164  A    between atoms: _384  and  _386
REMARK  165  A    between atoms: _386  and  _387
REMARK  166  A    between atoms: _386  and  _389
REMARK  167  A    between atoms: _389  and  _390
REMARK  168  A    between atoms: _396  and  _398
REMARK  169  A    between atoms: _398  and  _399
REMARK  170  A    between atoms: _401  and  _403
REMARK  171  A    between atoms: _403  and  _404
REMARK  172  A    between atoms: _403  and  _406
REMARK  173  A    between atoms: _406  and  _407
REMARK  174  A    between atoms: _410  and  _412
REMARK  175  A    between atoms: _412  and  _413
REMARK  176  A    between atoms: _412  and  _415
REMARK  177  A    between atoms: _415  and  _416
REMARK  178  A    between atoms: _419  and  _421
REMARK  179  A    between atoms: _421  and  _422
REMARK  180  A    between atoms: _421  and  _424
REMARK  181  A    between atoms: _427  and  _429
REMARK  182  A    between atoms: _429  and  _430
REMARK  183  A    between atoms: _429  and  _432
REMARK  184  A    between atoms: _432  and  _433
REMARK  185  A    between atoms: _436  and  _438
REMARK  186  A    between atoms: _438  and  _439
REMARK  187  A    between atoms: _438  and  _441
REMARK  188  A    between atoms: _441  and  _442
REMARK  189  A    between atoms: _445  and  _447
REMARK  190  A    between atoms: _447  and  _448
REMARK  191  A    between atoms: _447  and  _450
REMARK  192  A    between atoms: _450  and  _451
REMARK  193  A    between atoms: _453  and  _455
REMARK  194  A    between atoms: _455  and  _456
REMARK  195  A    between atoms: _455  and  _458
REMARK  196  A    between atoms: _458  and  _459
REMARK  197  A    between atoms: _459  and  _460
REMARK  198  A    between atoms: _460  and  _461
REMARK  199  A    between atoms: _461  and  _462
REMARK  200  A    between atoms: _466  and  _468
REMARK  201  A    between atoms: _468  and  _469
REMARK  202  A    between atoms: _471  and  _473
REMARK  203  A    between atoms: _473  and  _474
REMARK  204  A    between atoms: _477  and  _479
REMARK  205  A    between atoms: _479  and  _480
REMARK  206  A    between atoms: _479  and  _482
REMARK  207  A    between atoms: _483  and  _484
REMARK  208  A    between atoms: _487  and  _489
REMARK  209  A    between atoms: _489  and  _490
REMARK  210  A    between atoms: _489  and  _492
REMARK  211  A    between atoms: _492  and  _493
REMARK  212  A    between atoms: _493  and  _494
REMARK  213  A    between atoms: _494  and  _495
REMARK  214  A    between atoms: _504  and  _506
REMARK  215  A    between atoms: _506  and  _507
REMARK  216  A    between atoms: _510  and  _512
REMARK  217  A    between atoms: _512  and  _513
REMARK  218  A    between atoms: _512  and  _515
REMARK  219  A    between atoms: _515  and  _516
REMARK  220  A    between atoms: _519  and  _521
REMARK  221  A    between atoms: _521  and  _522
REMARK  222  A    between atoms: _521  and  _524
REMARK  223  A    between atoms: _524  and  _525
REMARK  224  A    between atoms: _528  and  _530
REMARK  225  A    between atoms: _530  and  _531
REMARK  226  A    between atoms: _530  and  _533
REMARK  227  A    between atoms: _533  and  _534
REMARK  228  A    between atoms: _537  and  _539
REMARK  229  A    between atoms: _539  and  _540
REMARK  230  A    between atoms: _539  and  _542
REMARK  231  A    between atoms: _542  and  _543
REMARK  232  A    between atoms: _543  and  _544
REMARK  233  A    between atoms: _544  and  _545
REMARK  234  A    between atoms: _545  and  _546
REMARK  235  A    between atoms: _550  and  _552
REMARK  236  A    between atoms: _552  and  _553
REMARK  237  A    between atoms: _552  and  _555
REMARK  238  A    between atoms: _555  and  _556
REMARK  239  A    between atoms: _556  and  _557
REMARK  240  A    between atoms: _560  and  _561
REMARK  241  A    between atoms: _566  and  _568
REMARK  242  A    between atoms: _568  and  _569
REMARK  243  A    between atoms: _568  and  _571
REMARK  244  A    between atoms: _571  and  _572
REMARK  245  A    between atoms: _575  and  _577
REMARK  246  A    between atoms: _577  and  _578
REMARK  247  A    between atoms: _577  and  _580
REMARK  248  A    between atoms: _580  and  _581
REMARK  249  A    between atoms: _581  and  _582
REMARK  250  A    between atoms: _582  and  _583
REMARK  251  A    between atoms: _592  and  _594
REMARK  252  A    between atoms: _594  and  _595
REMARK  253  A    between atoms: _594  and  _597
REMARK  254  A    between atoms: _597  and  _598
REMARK  255  A    between atoms: _598  and  _599
REMARK  256  A    between atoms: _601  and  _603
REMARK  257  A    between atoms: _603  and  _604
REMARK  258  A    between atoms: _603  and  _606
REMARK  259  A    between atoms: _606  and  _607
REMARK                            x       y       z     vdW  Elec       q    Type
REMARK                         _______ _______ _______ _____ _____    ______ ____
ROOT
ATOM      1  O   HOH     1      35.561  21.585  88.725  0.00  0.00    +0.000 OA
ENDROOT
TORSDOF 0
REMARK  Name = ../refined-set-2016/1fcz/1fcz_pocket.pdb
REMARK  259 active torsions:
REMARK  status: ('A' for Active; 'I' for Inactive)
REMARK    1  A    between atoms: _1  and  _3
REMARK    2  A    between atoms: _3  and  _4
REMARK    3  A    between atoms: _3  and  _6
REMARK    4  A    between atoms: _6  and  _7
REMARK    5  A    between atoms: _10  and  _12
REMARK    6  A    between atoms: _12  and  _13
REMARK    7  A    between atoms: _12  and  _15
REMARK    8  A    between atoms: _15  and  _16
REMARK    9  A    between atoms: _23  and  _24
REMARK   10  A    between atoms: _29  and  _31
REMARK   11  A    between atoms: _31  and  _32
REMARK   12  A    between atoms: _31  and  _34
REMARK   13  A    between atoms: _34  and  _35
REMARK   14  A    between atoms: _38  and  _40
REMARK   15  A    between atoms: _40  and  _41
REMARK   16  A    between atoms: _40  and  _43
REMARK   17  A    between atoms: _43  and  _44
REMARK   18  A    between atoms: _54  and  _56
REMARK   19  A    between atoms: _56  and  _57
REMARK   20  A    between atoms: _56  and  _59
REMARK   21  A    between atoms: _59  and  _60
REMARK   22  A    between atoms: _60  and  _61
REMARK   23  A    between atoms: _61  and  _62
REMARK   24  A    between atoms: _62  and  _63
REMARK   25  A    between atoms: _67  and  _69
REMARK   26  A    between atoms: _69  and  _70
REMARK   27  A    between atoms: _69  and  _72
REMARK   28  A    between atoms: _72  and  _73
REMARK   29  A    between atoms: _79  and  _81
REMARK   30  A    between atoms: _81  and  _82
REMARK   31  A    between atoms: _81  and  _84
REMARK   32  A    between atoms: _84  and  _85
REMARK   33  A    between atoms: _87  and  _89
REMARK   34  A    between atoms: _89  and  _90
REMARK   35  A    between atoms: _89  and  _92
REMARK   36  A    between atoms: _92  and  _93
REMARK   37  A    between atoms: _93  and  _94
REMARK   38  A    between atoms: _97  and  _99
REMARK   39  A    between atoms: _99  and  _100
REMARK   40  A    between atoms: _99  and  _102
REMARK   41  A    between atoms: _102  and  _103
REMARK   42  A    between atoms: _106  and  _108
REMARK   43  A    between atoms: _108  and  _109
REMARK   44  A    between atoms: _112  and  _114
REMARK   45  A    between atoms: _114  and  _115
REMARK   46  A    between atoms: _114  and  _117
REMARK   47  A    between atoms: _117  and  _118
REMARK   48  A    between atoms: _121  and  _123
REMARK   49  A    between atoms: _123  and  _124
REMARK   50  A    between atoms: _123  and  _126
REMARK   51  A    between atoms: _126  and  _127
REMARK   52  A    between atoms: _127  and  _128
REMARK   53  A    between atoms: _128  and  _129
REMARK   54  A    between atoms: _129  and  _130
REMARK   55  A    between atoms: _134  and  _136
REMARK   56  A    between atoms: _136  and  _137
REMARK   57  A    between atoms: _136  and  _139
REMARK   58  A    between atoms: _141  and  _143
REMARK   59  A    between atoms: _143  and  _144
REMARK   60  A    between atoms: _143  and  _146
REMARK   61  A    between atoms: _146  and  _147
REMARK   62  A    between atoms: _150  and  _152
REMARK   63  A    between atoms: _152  and  _153
REMARK   64  A    between atoms: _152  and  _155
REMARK   65  A    between atoms: _155  and  _156
REMARK   66  A    between atoms: _156  and  _157
REMARK   67  A    between atoms: _157  and  _158
REMARK   68  A    between atoms: _158  and  _159
REMARK   69  A    between atoms: _163  and  _165
REMARK   70  A    between atoms: _165  and  _166
REMARK   71  A    between atoms: _165  and  _168
REMARK   72  A    between atoms: _168  and  _169
REMARK   73  A    between atoms: _172  and  _174
REMARK   74  A    between atoms: _174  and  _175
REMARK   75  A    between atoms: _174  and  _177
REMARK   76  A    between atoms: _179  and  _181
REMARK   77  A    between atoms: _181  and  _182
REMARK   78  A    between atoms: _181  and  _184
REMARK   79  A    between atoms: _184  and  _185
REMARK   80  A    between atoms: _188  and  _190
REMARK   81  A    between atoms: _190  and  _191
REMARK   82  A    between atoms: _190  and  _193
REMARK   83  A    between atoms: _193  and  _194
REMARK   84  A    between atoms: _197  and  _199
REMARK   85  A    between atoms: _199  and  _200
REMARK   86  A    between atoms: _199  and  _202
REMARK   87  A    between atoms: _202  and  _203
REMARK   88  A    between atoms: _206  and  _208
REMARK   89  A    between atoms: _208  and  _209
REMARK   90  A    between atoms: _208  and  _211
REMARK   91  A    between atoms: _211  and  _212
REMARK   92  A    between atoms: _215  and  _217
REMARK   93  A    between atoms: _217  and  _218
REMARK   94  A    between atoms: _217  and  _220
REMARK   95  A    between atoms: _220  and  _221
REMARK   96  A    between atoms: _221  and  _222
REMARK   97  A    between atoms: _224  and  _226
REMARK   98  A    between atoms: _226  and  _227
REMARK   99  A    between atoms: _226  and  _229
REMARK  100  A    between atoms: _229  and  _230
REMARK  101  A    between atoms: _233  and  _235
REMARK  102  A    between atoms: _235  and  _236
REMARK  103  A    between atoms: _235  and  _238
REMARK  104  A    between atoms: _238  and  _239
REMARK  105  A    between atoms: _239  and  _240
REMARK  106  A    between atoms: _240  and  _241
REMARK  107  A    between atoms: _250  and  _252
REMARK  108  A    between atoms: _252  and  _253
REMARK  109  A    between atoms: _252  and  _255
REMARK  110  A    between atoms: _255  and  _256
REMARK  111  A    between atoms: _259  and  _261
REMARK  112  A    between atoms: _261  and  _262
REMARK  113  A    between atoms: _261  and  _264
REMARK  114  A    between atoms: _266  and  _268
REMARK  115  A    between atoms: _268  and  _269
REMARK  116  A    between atoms: _268  and  _271
REMARK  117  A    between atoms: _271  and  _272
REMARK  118  A    between atoms: _275  and  _277
REMARK  119  A    between atoms: _277  and  _278
REMARK  120  A    between atoms: _277  and  _280
REMARK  121  A    between atoms: _280  and  _281
REMARK  122  A    between atoms: _281  and  _282
REMARK  123  A    between atoms: _282  and  _283
REMARK  124  A    between atoms: _292  and  _294
REMARK  125  A    between atoms: _294  and  _295
REMARK  126  A    between atoms: _294  and  _297
REMARK  127  A    between atoms: _297  and  _298
REMARK  128  A    between atoms: _298  and  _299
REMARK  129  A    between atoms: _301  and  _303
REMARK  130  A    between atoms: _303  and  _304
REMARK  131  A    between atoms: _303  and  _306
REMARK  132  A    between atoms: _306  and  _307
REMARK  133  A    between atoms: _310  and  _312
REMARK  134  A    between atoms: _312  and  _313
REMARK  135  A    between atoms: _312  and  _315
REMARK  136  A    between atoms: _315  and  _316
REMARK  137  A    between atoms: _322  and  _324
REMARK  138  A    between atoms: _324  and  _325
REMARK  139  A    between atoms: _324  and  _327
REMARK  140  A    between atoms: _327  and  _328
REMARK  141  A    between atoms: _330  and  _332
REMARK  142  A    between atoms: _332  and  _333
REMARK  143  A    between atoms: _332  and  _335
REMARK  144  A    between atoms: _335  and  _336
REMARK  145  A    between atoms: _339  and  _341
REMARK  146  A    between atoms: _341  and  _342
REMARK  147  A    between atoms: _344  and  _346
REMARK  148  A    between atoms: _346  and  _347
REMARK  149  A    between atoms: _346  and  _349
REMARK  150  A    between atoms: _349  and  _350
REMARK  151  A    between atoms: _353  and  _355
REMARK  152  A    between atoms: _355  and  _356
REMARK  153  A    between atoms: _355  and  _358
REMARK  154  A    between atoms: _358  and  _359
REMARK  155  A    between atoms: _359  and  _360
REMARK  156  A    between atoms: _362  and  _364
REMARK  157  A    between atoms: _364  and  _365
REMARK  158  A    between atoms: _364  and  _367
REMARK  159  A    between atoms: _367  and  _368
REMARK  160  A    between atoms: _373  and  _375
REMARK  161  A    between atoms: _375  and  _376
REMARK  162  A    between atoms: _379  and  _381
REMARK  163  A    between atoms: _381  and  _382
REMARK  164  A    between atoms: _384  and  _386
REMARK  165  A    between atoms: _386  and  _387
REMARK  166  A    between atoms: _386  and  _389
REMARK  167  A    between atoms: _389  and  _390
REMARK  168  A    between atoms: _396  and  _398
REMARK  169  A    between atoms: _398  and  _399
REMARK  170  A    between atoms: _401  and  _403
REMARK  171  A    between atoms: _403  and  _404
REMARK  172  A    between atoms: _403  and  _406
REMARK  173  A    between atoms: _406  and  _407
REMARK  174  A    between atoms: _410  and  _412
REMARK  175  A    between atoms: _412  and  _413
REMARK  176  A    between atoms: _412  and  _415
REMARK  177  A    between atoms: _415  and  _416
REMARK  178  A    between atoms: _419  and  _421
REMARK  179  A    between atoms: _421  and  _422
REMARK  180  A    between atoms: _421  and  _424
REMARK  181  A    between atoms: _427  and  _429
REMARK  182  A    between atoms: _429  and  _430
REMARK  183  A    between atoms: _429  and  _432
REMARK  184  A    between atoms: _432  and  _433
REMARK  185  A    between atoms: _436  and  _438
REMARK  186  A    between atoms: _438  and  _439
REMARK  187  A    between atoms: _438  and  _441
REMARK  188  A    between atoms: _441  and  _442
REMARK  189  A    between atoms: _445  and  _447
REMARK  190  A    between atoms: _447  and  _448
REMARK  191  A    between atoms: _447  and  _450
REMARK  192  A    between atoms: _450  and  _451
REMARK  193  A    between atoms: _453  and  _455
REMARK  194  A    between atoms: _455  and  _456
REMARK  195  A    between atoms: _455  and  _458
REMARK  196  A    between atoms: _458  and  _459
REMARK  197  A    between atoms: _459  and  _460
REMARK  198  A    between atoms: _460  and  _461
REMARK  199  A    between atoms: _461  and  _462
REMARK  200  A    between atoms: _466  and  _468
REMARK  201  A    between atoms: _468  and  _469
REMARK  202  A    between atoms: _471  and  _473
REMARK  203  A    between atoms: _473  and  _474
REMARK  204  A    between atoms: _477  and  _479
REMARK  205  A    between atoms: _479  and  _480
REMARK  206  A    between atoms: _479  and  _482
REMARK  207  A    between atoms: _483  and  _484
REMARK  208  A    between atoms: _487  and  _489
REMARK  209  A    between atoms: _489  and  _490
REMARK  210  A    between atoms: _489  and  _492
REMARK  211  A    between atoms: _492  and  _493
REMARK  212  A    between atoms: _493  and  _494
REMARK  213  A    between atoms: _494  and  _495
REMARK  214  A    between atoms: _504  and  _506
REMARK  215  A    between atoms: _506  and  _507
REMARK  216  A    between atoms: _510  and  _512
REMARK  217  A    between atoms: _512  and  _513
REMARK  218  A    between atoms: _512  and  _515
REMARK  219  A    between atoms: _515  and  _516
REMARK  220  A    between atoms: _519  and  _521
REMARK  221  A    between atoms: _521  and  _522
REMARK  222  A    between atoms: _521  and  _524
REMARK  223  A    between atoms: _524  and  _525
REMARK  224  A    between atoms: _528  and  _530
REMARK  225  A    between atoms: _530  and  _531
REMARK  226  A    between atoms: _530  and  _533
REMARK  227  A    between atoms: _533  and  _534
REMARK  228  A    between atoms: _537  and  _539
REMARK  229  A    between atoms: _539  and  _540
REMARK  230  A    between atoms: _539  and  _542
REMARK  231  A    between atoms: _542  and  _543
REMARK  232  A    between atoms: _543  and  _544
REMARK  233  A    between atoms: _544  and  _545
REMARK  234  A    between atoms: _545  and  _546
REMARK  235  A    between atoms: _550  and  _552
REMARK  236  A    between atoms: _552  and  _553
REMARK  237  A    between atoms: _552  and  _555
REMARK  238  A    between atoms: _555  and  _556
REMARK  239  A    between atoms: _556  and  _557
REMARK  240  A    between atoms: _560  and  _561
REMARK  241  A    between atoms: _566  and  _568
REMARK  242  A    between atoms: _568  and  _569
REMARK  243  A    between atoms: _568  and  _571
REMARK  244  A    between atoms: _571  and  _572
REMARK  245  A    between atoms: _575  and  _577
REMARK  246  A    between atoms: _577  and  _578
REMARK  247  A    between atoms: _577  and  _580
REMARK  248  A    between atoms: _580  and  _581
REMARK  249  A    between atoms: _581  and  _582
REMARK  250  A    between atoms: _582  and  _583
REMARK  251  A    between atoms: _592  and  _594
REMARK  252  A    between atoms: _594  and  _595
REMARK  253  A    between atoms: _594  and  _597
REMARK  254  A    between atoms: _597  and  _598
REMARK  255  A    between atoms: _598  and  _599
REMARK  256  A    between atoms: _601  and  _603
REMARK  257  A    between atoms: _603  and  _604
REMARK  258  A    between atoms: _603  and  _606
REMARK  259  A    between atoms: _606  and  _607
REMARK                            x       y       z     vdW  Elec       q    Type
REMARK                         _______ _______ _______ _____ _____    ______ ____
ROOT
ATOM      1  O   HOH     1      41.098  14.306  72.693  0.00  0.00    +0.000 OA
ENDROOT
TORSDOF 0
REMARK  Name = ../refined-set-2016/1fcz/1fcz_pocket.pdb
REMARK  259 active torsions:
REMARK  status: ('A' for Active; 'I' for Inactive)
REMARK    1  A    between atoms: _1  and  _3
REMARK    2  A    between atoms: _3  and  _4
REMARK    3  A    between atoms: _3  and  _6
REMARK    4  A    between atoms: _6  and  _7
REMARK    5  A    between atoms: _10  and  _12
REMARK    6  A    between atoms: _12  and  _13
REMARK    7  A    between atoms: _12  and  _15
REMARK    8  A    between atoms: _15  and  _16
REMARK    9  A    between atoms: _23  and  _24
REMARK   10  A    between atoms: _29  and  _31
REMARK   11  A    between atoms: _31  and  _32
REMARK   12  A    between atoms: _31  and  _34
REMARK   13  A    between atoms: _34  and  _35
REMARK   14  A    between atoms: _38  and  _40
REMARK   15  A    between atoms: _40  and  _41
REMARK   16  A    between atoms: _40  and  _43
REMARK   17  A    between atoms: _43  and  _44
REMARK   18  A    between atoms: _54  and  _56
REMARK   19  A    between atoms: _56  and  _57
REMARK   20  A    between atoms: _56  and  _59
REMARK   21  A    between atoms: _59  and  _60
REMARK   22  A    between atoms: _60  and  _61
REMARK   23  A    between atoms: _61  and  _62
REMARK   24  A    between atoms: _62  and  _63
REMARK   25  A    between atoms: _67  and  _69
REMARK   26  A    between atoms: _69  and  _70
REMARK   27  A    between atoms: _69  and  _72
REMARK   28  A    between atoms: _72  and  _73
REMARK   29  A    between atoms: _79  and  _81
REMARK   30  A    between atoms: _81  and  _82
REMARK   31  A    between atoms: _81  and  _84
REMARK   32  A    between atoms: _84  and  _85
REMARK   33  A    between atoms: _87  and  _89
REMARK   34  A    between atoms: _89  and  _90
REMARK   35  A    between atoms: _89  and  _92
REMARK   36  A    between atoms: _92  and  _93
REMARK   37  A    between atoms: _93  and  _94
REMARK   38  A    between atoms: _97  and  _99
REMARK   39  A    between atoms: _99  and  _100
REMARK   40  A    between atoms: _99  and  _102
REMARK   41  A    between atoms: _102  and  _103
REMARK   42  A    between atoms: _106  and  _108
REMARK   43  A    between atoms: _108  and  _109
REMARK   44  A    between atoms: _112  and  _114
REMARK   45  A    between atoms: _114  and  _115
REMARK   46  A    between atoms: _114  and  _117
REMARK   47  A    between atoms: _117  and  _118
REMARK   48  A    between atoms: _121  and  _123
REMARK   49  A    between atoms: _123  and  _124
REMARK   50  A    between atoms: _123  and  _126
REMARK   51  A    between atoms: _126  and  _127
REMARK   52  A    between atoms: _127  and  _128
REMARK   53  A    between atoms: _128  and  _129
REMARK   54  A    between atoms: _129  and  _130
REMARK   55  A    between atoms: _134  and  _136
REMARK   56  A    between atoms: _136  and  _137
REMARK   57  A    between atoms: _136  and  _139
REMARK   58  A    between atoms: _141  and  _143
REMARK   59  A    between atoms: _143  and  _144
REMARK   60  A    between atoms: _143  and  _146
REMARK   61  A    between atoms: _146  and  _147
REMARK   62  A    between atoms: _150  and  _152
REMARK   63  A    between atoms: _152  and  _153
REMARK   64  A    between atoms: _152  and  _155
REMARK   65  A    between atoms: _155  and  _156
REMARK   66  A    between atoms: _156  and  _157
REMARK   67  A    between atoms: _157  and  _158
REMARK   68  A    between atoms: _158  and  _159
REMARK   69  A    between atoms: _163  and  _165
REMARK   70  A    between atoms: _165  and  _166
REMARK   71  A    between atoms: _165  and  _168
REMARK   72  A    between atoms: _168  and  _169
REMARK   73  A    between atoms: _172  and  _174
REMARK   74  A    between atoms: _174  and  _175
REMARK   75  A    between atoms: _174  and  _177
REMARK   76  A    between atoms: _179  and  _181
REMARK   77  A    between atoms: _181  and  _182
REMARK   78  A    between atoms: _181  and  _184
REMARK   79  A    between atoms: _184  and  _185
REMARK   80  A    between atoms: _188  and  _190
REMARK   81  A    between atoms: _190  and  _191
REMARK   82  A    between atoms: _190  and  _193
REMARK   83  A    between atoms: _193  and  _194
REMARK   84  A    between atoms: _197  and  _199
REMARK   85  A    between atoms: _199  and  _200
REMARK   86  A    between atoms: _199  and  _202
REMARK   87  A    between atoms: _202  and  _203
REMARK   88  A    between atoms: _206  and  _208
REMARK   89  A    between atoms: _208  and  _209
REMARK   90  A    between atoms: _208  and  _211
REMARK   91  A    between atoms: _211  and  _212
REMARK   92  A    between atoms: _215  and  _217
REMARK   93  A    between atoms: _217  and  _218
REMARK   94  A    between atoms: _217  and  _220
REMARK   95  A    between atoms: _220  and  _221
REMARK   96  A    between atoms: _221  and  _222
REMARK   97  A    between atoms: _224  and  _226
REMARK   98  A    between atoms: _226  and  _227
REMARK   99  A    between atoms: _226  and  _229
REMARK  100  A    between atoms: _229  and  _230
REMARK  101  A    between atoms: _233  and  _235
REMARK  102  A    between atoms: _235  and  _236
REMARK  103  A    between atoms: _235  and  _238
REMARK  104  A    between atoms: _238  and  _239
REMARK  105  A    between atoms: _239  and  _240
REMARK  106  A    between atoms: _240  and  _241
REMARK  107  A    between atoms: _250  and  _252
REMARK  108  A    between atoms: _252  and  _253
REMARK  109  A    between atoms: _252  and  _255
REMARK  110  A    between atoms: _255  and  _256
REMARK  111  A    between atoms: _259  and  _261
REMARK  112  A    between atoms: _261  and  _262
REMARK  113  A    between atoms: _261  and  _264
REMARK  114  A    between atoms: _266  and  _268
REMARK  115  A    between atoms: _268  and  _269
REMARK  116  A    between atoms: _268  and  _271
REMARK  117  A    between atoms: _271  and  _272
REMARK  118  A    between atoms: _275  and  _277
REMARK  119  A    between atoms: _277  and  _278
REMARK  120  A    between atoms: _277  and  _280
REMARK  121  A    between atoms: _280  and  _281
REMARK  122  A    between atoms: _281  and  _282
REMARK  123  A    between atoms: _282  and  _283
REMARK  124  A    between atoms: _292  and  _294
REMARK  125  A    between atoms: _294  and  _295
REMARK  126  A    between atoms: _294  and  _297
REMARK  127  A    between atoms: _297  and  _298
REMARK  128  A    between atoms: _298  and  _299
REMARK  129  A    between atoms: _301  and  _303
REMARK  130  A    between atoms: _303  and  _304
REMARK  131  A    between atoms: _303  and  _306
REMARK  132  A    between atoms: _306  and  _307
REMARK  133  A    between atoms: _310  and  _312
REMARK  134  A    between atoms: _312  and  _313
REMARK  135  A    between atoms: _312  and  _315
REMARK  136  A    between atoms: _315  and  _316
REMARK  137  A    between atoms: _322  and  _324
REMARK  138  A    between atoms: _324  and  _325
REMARK  139  A    between atoms: _324  and  _327
REMARK  140  A    between atoms: _327  and  _328
REMARK  141  A    between atoms: _330  and  _332
REMARK  142  A    between atoms: _332  and  _333
REMARK  143  A    between atoms: _332  and  _335
REMARK  144  A    between atoms: _335  and  _336
REMARK  145  A    between atoms: _339  and  _341
REMARK  146  A    between atoms: _341  and  _342
REMARK  147  A    between atoms: _344  and  _346
REMARK  148  A    between atoms: _346  and  _347
REMARK  149  A    between atoms: _346  and  _349
REMARK  150  A    between atoms: _349  and  _350
REMARK  151  A    between atoms: _353  and  _355
REMARK  152  A    between atoms: _355  and  _356
REMARK  153  A    between atoms: _355  and  _358
REMARK  154  A    between atoms: _358  and  _359
REMARK  155  A    between atoms: _359  and  _360
REMARK  156  A    between atoms: _362  and  _364
REMARK  157  A    between atoms: _364  and  _365
REMARK  158  A    between atoms: _364  and  _367
REMARK  159  A    between atoms: _367  and  _368
REMARK  160  A    between atoms: _373  and  _375
REMARK  161  A    between atoms: _375  and  _376
REMARK  162  A    between atoms: _379  and  _381
REMARK  163  A    between atoms: _381  and  _382
REMARK  164  A    between atoms: _384  and  _386
REMARK  165  A    between atoms: _386  and  _387
REMARK  166  A    between atoms: _386  and  _389
REMARK  167  A    between atoms: _389  and  _390
REMARK  168  A    between atoms: _396  and  _398
REMARK  169  A    between atoms: _398  and  _399
REMARK  170  A    between atoms: _401  and  _403
REMARK  171  A    between atoms: _403  and  _404
REMARK  172  A    between atoms: _403  and  _406
REMARK  173  A    between atoms: _406  and  _407
REMARK  174  A    between atoms: _410  and  _412
REMARK  175  A    between atoms: _412  and  _413
REMARK  176  A    between atoms: _412  and  _415
REMARK  177  A    between atoms: _415  and  _416
REMARK  178  A    between atoms: _419  and  _421
REMARK  179  A    between atoms: _421  and  _422
REMARK  180  A    between atoms: _421  and  _424
REMARK  181  A    between atoms: _427  and  _429
REMARK  182  A    between atoms: _429  and  _430
REMARK  183  A    between atoms: _429  and  _432
REMARK  184  A    between atoms: _432  and  _433
REMARK  185  A    between atoms: _436  and  _438
REMARK  186  A    between atoms: _438  and  _439
REMARK  187  A    between atoms: _438  and  _441
REMARK  188  A    between atoms: _441  and  _442
REMARK  189  A    between atoms: _445  and  _447
REMARK  190  A    between atoms: _447  and  _448
REMARK  191  A    between atoms: _447  and  _450
REMARK  192  A    between atoms: _450  and  _451
REMARK  193  A    between atoms: _453  and  _455
REMARK  194  A    between atoms: _455  and  _456
REMARK  195  A    between atoms: _455  and  _458
REMARK  196  A    between atoms: _458  and  _459
REMARK  197  A    between atoms: _459  and  _460
REMARK  198  A    between atoms: _460  and  _461
REMARK  199  A    between atoms: _461  and  _462
REMARK  200  A    between atoms: _466  and  _468
REMARK  201  A    between atoms: _468  and  _469
REMARK  202  A    between atoms: _471  and  _473
REMARK  203  A    between atoms: _473  and  _474
REMARK  204  A    between atoms: _477  and  _479
REMARK  205  A    between atoms: _479  and  _480
REMARK  206  A    between atoms: _479  and  _482
REMARK  207  A    between atoms: _483  and  _484
REMARK  208  A    between atoms: _487  and  _489
REMARK  209  A    between atoms: _489  and  _490
REMARK  210  A    between atoms: _489  and  _492
REMARK  211  A    between atoms: _492  and  _493
REMARK  212  A    between atoms: _493  and  _494
REMARK  213  A    between atoms: _494  and  _495
REMARK  214  A    between atoms: _504  and  _506
REMARK  215  A    between atoms: _506  and  _507
REMARK  216  A    between atoms: _510  and  _512
REMARK  217  A    between atoms: _512  and  _513
REMARK  218  A    between atoms: _512  and  _515
REMARK  219  A    between atoms: _515  and  _516
REMARK  220  A    between atoms: _519  and  _521
REMARK  221  A    between atoms: _521  and  _522
REMARK  222  A    between atoms: _521  and  _524
REMARK  223  A    between atoms: _524  and  _525
REMARK  224  A    between atoms: _528  and  _530
REMARK  225  A    between atoms: _530  and  _531
REMARK  226  A    between atoms: _530  and  _533
REMARK  227  A    between atoms: _533  and  _534
REMARK  228  A    between atoms: _537  and  _539
REMARK  229  A    between atoms: _539  and  _540
REMARK  230  A    between atoms: _539  and  _542
REMARK  231  A    between atoms: _542  and  _543
REMARK  232  A    between atoms: _543  and  _544
REMARK  233  A    between atoms: _544  and  _545
REMARK  234  A    between atoms: _545  and  _546
REMARK  235  A    between atoms: _550  and  _552
REMARK  236  A    between atoms: _552  and  _553
REMARK  237  A    between atoms: _552  and  _555
REMARK  238  A    between atoms: _555  and  _556
REMARK  239  A    between atoms: _556  and  _557
REMARK  240  A    between atoms: _560  and  _561
REMARK  241  A    between atoms: _566  and  _568
REMARK  242  A    between atoms: _568  and  _569
REMARK  243  A    between atoms: _568  and  _571
REMARK  244  A    between atoms: _571  and  _572
REMARK  245  A    between atoms: _575  and  _577
REMARK  246  A    between atoms: _577  and  _578
REMARK  247  A    between atoms: _577  and  _580
REMARK  248  A    between atoms: _580  and  _581
REMARK  249  A    between atoms: _581  and  _582
REMARK  250  A    between atoms: _582  and  _583
REMARK  251  A    between atoms: _592  and  _594
REMARK  252  A    between atoms: _594  and  _595
REMARK  253  A    between atoms: _594  and  _597
REMARK  254  A    between atoms: _597  and  _598
REMARK  255  A    between atoms: _598  and  _599
REMARK  256  A    between atoms: _601  and  _603
REMARK  257  A    between atoms: _603  and  _604
REMARK  258  A    between atoms: _603  and  _606
REMARK  259  A    between atoms: _606  and  _607
REMARK                            x       y       z     vdW  Elec       q    Type
REMARK                         _______ _______ _______ _____ _____    ______ ____
ROOT
ATOM      1  O   HOH     1      33.753  23.763  89.202  0.00  0.00    +0.000 OA
ENDROOT
TORSDOF 0
REMARK  Name = ../refined-set-2016/1fcz/1fcz_pocket.pdb
REMARK  259 active torsions:
REMARK  status: ('A' for Active; 'I' for Inactive)
REMARK    1  A    between atoms: _1  and  _3
REMARK    2  A    between atoms: _3  and  _4
REMARK    3  A    between atoms: _3  and  _6
REMARK    4  A    between atoms: _6  and  _7
REMARK    5  A    between atoms: _10  and  _12
REMARK    6  A    between atoms: _12  and  _13
REMARK    7  A    between atoms: _12  and  _15
REMARK    8  A    between atoms: _15  and  _16
REMARK    9  A    between atoms: _23  and  _24
REMARK   10  A    between atoms: _29  and  _31
REMARK   11  A    between atoms: _31  and  _32
REMARK   12  A    between atoms: _31  and  _34
REMARK   13  A    between atoms: _34  and  _35
REMARK   14  A    between atoms: _38  and  _40
REMARK   15  A    between atoms: _40  and  _41
REMARK   16  A    between atoms: _40  and  _43
REMARK   17  A    between atoms: _43  and  _44
REMARK   18  A    between atoms: _54  and  _56
REMARK   19  A    between atoms: _56  and  _57
REMARK   20  A    between atoms: _56  and  _59
REMARK   21  A    between atoms: _59  and  _60
REMARK   22  A    between atoms: _60  and  _61
REMARK   23  A    between atoms: _61  and  _62
REMARK   24  A    between atoms: _62  and  _63
REMARK   25  A    between atoms: _67  and  _69
REMARK   26  A    between atoms: _69  and  _70
REMARK   27  A    between atoms: _69  and  _72
REMARK   28  A    between atoms: _72  and  _73
REMARK   29  A    between atoms: _79  and  _81
REMARK   30  A    between atoms: _81  and  _82
REMARK   31  A    between atoms: _81  and  _84
REMARK   32  A    between atoms: _84  and  _85
REMARK   33  A    between atoms: _87  and  _89
REMARK   34  A    between atoms: _89  and  _90
REMARK   35  A    between atoms: _89  and  _92
REMARK   36  A    between atoms: _92  and  _93
REMARK   37  A    between atoms: _93  and  _94
REMARK   38  A    between atoms: _97  and  _99
REMARK   39  A    between atoms: _99  and  _100
REMARK   40  A    between atoms: _99  and  _102
REMARK   41  A    between atoms: _102  and  _103
REMARK   42  A    between atoms: _106  and  _108
REMARK   43  A    between atoms: _108  and  _109
REMARK   44  A    between atoms: _112  and  _114
REMARK   45  A    between atoms: _114  and  _115
REMARK   46  A    between atoms: _114  and  _117
REMARK   47  A    between atoms: _117  and  _118
REMARK   48  A    between atoms: _121  and  _123
REMARK   49  A    between atoms: _123  and  _124
REMARK   50  A    between atoms: _123  and  _126
REMARK   51  A    between atoms: _126  and  _127
REMARK   52  A    between atoms: _127  and  _128
REMARK   53  A    between atoms: _128  and  _129
REMARK   54  A    between atoms: _129  and  _130
REMARK   55  A    between atoms: _134  and  _136
REMARK   56  A    between atoms: _136  and  _137
REMARK   57  A    between atoms: _136  and  _139
REMARK   58  A    between atoms: _141  and  _143
REMARK   59  A    between atoms: _143  and  _144
REMARK   60  A    between atoms: _143  and  _146
REMARK   61  A    between atoms: _146  and  _147
REMARK   62  A    between atoms: _150  and  _152
REMARK   63  A    between atoms: _152  and  _153
REMARK   64  A    between atoms: _152  and  _155
REMARK   65  A    between atoms: _155  and  _156
REMARK   66  A    between atoms: _156  and  _157
REMARK   67  A    between atoms: _157  and  _158
REMARK   68  A    between atoms: _158  and  _159
REMARK   69  A    between atoms: _163  and  _165
REMARK   70  A    between atoms: _165  and  _166
REMARK   71  A    between atoms: _165  and  _168
REMARK   72  A    between atoms: _168  and  _169
REMARK   73  A    between atoms: _172  and  _174
REMARK   74  A    between atoms: _174  and  _175
REMARK   75  A    between atoms: _174  and  _177
REMARK   76  A    between atoms: _179  and  _181
REMARK   77  A    between atoms: _181  and  _182
REMARK   78  A    between atoms: _181  and  _184
REMARK   79  A    between atoms: _184  and  _185
REMARK   80  A    between atoms: _188  and  _190
REMARK   81  A    between atoms: _190  and  _191
REMARK   82  A    between atoms: _190  and  _193
REMARK   83  A    between atoms: _193  and  _194
REMARK   84  A    between atoms: _197  and  _199
REMARK   85  A    between atoms: _199  and  _200
REMARK   86  A    between atoms: _199  and  _202
REMARK   87  A    between atoms: _202  and  _203
REMARK   88  A    between atoms: _206  and  _208
REMARK   89  A    between atoms: _208  and  _209
REMARK   90  A    between atoms: _208  and  _211
REMARK   91  A    between atoms: _211  and  _212
REMARK   92  A    between atoms: _215  and  _217
REMARK   93  A    between atoms: _217  and  _218
REMARK   94  A    between atoms: _217  and  _220
REMARK   95  A    between atoms: _220  and  _221
REMARK   96  A    between atoms: _221  and  _222
REMARK   97  A    between atoms: _224  and  _226
REMARK   98  A    between atoms: _226  and  _227
REMARK   99  A    between atoms: _226  and  _229
REMARK  100  A    between atoms: _229  and  _230
REMARK  101  A    between atoms: _233  and  _235
REMARK  102  A    between atoms: _235  and  _236
REMARK  103  A    between atoms: _235  and  _238
REMARK  104  A    between atoms: _238  and  _239
REMARK  105  A    between atoms: _239  and  _240
REMARK  106  A    between atoms: _240  and  _241
REMARK  107  A    between atoms: _250  and  _252
REMARK  108  A    between atoms: _252  and  _253
REMARK  109  A    between atoms: _252  and  _255
REMARK  110  A    between atoms: _255  and  _256
REMARK  111  A    between atoms: _259  and  _261
REMARK  112  A    between atoms: _261  and  _262
REMARK  113  A    between atoms: _261  and  _264
REMARK  114  A    between atoms: _266  and  _268
REMARK  115  A    between atoms: _268  and  _269
REMARK  116  A    between atoms: _268  and  _271
REMARK  117  A    between atoms: _271  and  _272
REMARK  118  A    between atoms: _275  and  _277
REMARK  119  A    between atoms: _277  and  _278
REMARK  120  A    between atoms: _277  and  _280
REMARK  121  A    between atoms: _280  and  _281
REMARK  122  A    between atoms: _281  and  _282
REMARK  123  A    between atoms: _282  and  _283
REMARK  124  A    between atoms: _292  and  _294
REMARK  125  A    between atoms: _294  and  _295
REMARK  126  A    between atoms: _294  and  _297
REMARK  127  A    between atoms: _297  and  _298
REMARK  128  A    between atoms: _298  and  _299
REMARK  129  A    between atoms: _301  and  _303
REMARK  130  A    between atoms: _303  and  _304
REMARK  131  A    between atoms: _303  and  _306
REMARK  132  A    between atoms: _306  and  _307
REMARK  133  A    between atoms: _310  and  _312
REMARK  134  A    between atoms: _312  and  _313
REMARK  135  A    between atoms: _312  and  _315
REMARK  136  A    between atoms: _315  and  _316
REMARK  137  A    between atoms: _322  and  _324
REMARK  138  A    between atoms: _324  and  _325
REMARK  139  A    between atoms: _324  and  _327
REMARK  140  A    between atoms: _327  and  _328
REMARK  141  A    between atoms: _330  and  _332
REMARK  142  A    between atoms: _332  and  _333
REMARK  143  A    between atoms: _332  and  _335
REMARK  144  A    between atoms: _335  and  _336
REMARK  145  A    between atoms: _339  and  _341
REMARK  146  A    between atoms: _341  and  _342
REMARK  147  A    between atoms: _344  and  _346
REMARK  148  A    between atoms: _346  and  _347
REMARK  149  A    between atoms: _346  and  _349
REMARK  150  A    between atoms: _349  and  _350
REMARK  151  A    between atoms: _353  and  _355
REMARK  152  A    between atoms: _355  and  _356
REMARK  153  A    between atoms: _355  and  _358
REMARK  154  A    between atoms: _358  and  _359
REMARK  155  A    between atoms: _359  and  _360
REMARK  156  A    between atoms: _362  and  _364
REMARK  157  A    between atoms: _364  and  _365
REMARK  158  A    between atoms: _364  and  _367
REMARK  159  A    between atoms: _367  and  _368
REMARK  160  A    between atoms: _373  and  _375
REMARK  161  A    between atoms: _375  and  _376
REMARK  162  A    between atoms: _379  and  _381
REMARK  163  A    between atoms: _381  and  _382
REMARK  164  A    between atoms: _384  and  _386
REMARK  165  A    between atoms: _386  and  _387
REMARK  166  A    between atoms: _386  and  _389
REMARK  167  A    between atoms: _389  and  _390
REMARK  168  A    between atoms: _396  and  _398
REMARK  169  A    between atoms: _398  and  _399
REMARK  170  A    between atoms: _401  and  _403
REMARK  171  A    between atoms: _403  and  _404
REMARK  172  A    between atoms: _403  and  _406
REMARK  173  A    between atoms: _406  and  _407
REMARK  174  A    between atoms: _410  and  _412
REMARK  175  A    between atoms: _412  and  _413
REMARK  176  A    between atoms: _412  and  _415
REMARK  177  A    between atoms: _415  and  _416
REMARK  178  A    between atoms: _419  and  _421
REMARK  179  A    between atoms: _421  and  _422
REMARK  180  A    between atoms: _421  and  _424
REMARK  181  A    between atoms: _427  and  _429
REMARK  182  A    between atoms: _429  and  _430
REMARK  183  A    between atoms: _429  and  _432
REMARK  184  A    between atoms: _432  and  _433
REMARK  185  A    between atoms: _436  and  _438
REMARK  186  A    between atoms: _438  and  _439
REMARK  187  A    between atoms: _438  and  _441
REMARK  188  A    between atoms: _441  and  _442
REMARK  189  A    between atoms: _445  and  _447
REMARK  190  A    between atoms: _447  and  _448
REMARK  191  A    between atoms: _447  and  _450
REMARK  192  A    between atoms: _450  and  _451
REMARK  193  A    between atoms: _453  and  _455
REMARK  194  A    between atoms: _455  and  _456
REMARK  195  A    between atoms: _455  and  _458
REMARK  196  A    between atoms: _458  and  _459
REMARK  197  A    between atoms: _459  and  _460
REMARK  198  A    between atoms: _460  and  _461
REMARK  199  A    between atoms: _461  and  _462
REMARK  200  A    between atoms: _466  and  _468
REMARK  201  A    between atoms: _468  and  _469
REMARK  202  A    between atoms: _471  and  _473
REMARK  203  A    between atoms: _473  and  _474
REMARK  204  A    between atoms: _477  and  _479
REMARK  205  A    between atoms: _479  and  _480
REMARK  206  A    between atoms: _479  and  _482
REMARK  207  A    between atoms: _483  and  _484
REMARK  208  A    between atoms: _487  and  _489
REMARK  209  A    between atoms: _489  and  _490
REMARK  210  A    between atoms: _489  and  _492
REMARK  211  A    between atoms: _492  and  _493
REMARK  212  A    between atoms: _493  and  _494
REMARK  213  A    between atoms: _494  and  _495
REMARK  214  A    between atoms: _504  and  _506
REMARK  215  A    between atoms: _506  and  _507
REMARK  216  A    between atoms: _510  and  _512
REMARK  217  A    between atoms: _512  and  _513
REMARK  218  A    between atoms: _512  and  _515
REMARK  219  A    between atoms: _515  and  _516
REMARK  220  A    between atoms: _519  and  _521
REMARK  221  A    between atoms: _521  and  _522
REMARK  222  A    between atoms: _521  and  _524
REMARK  223  A    between atoms: _524  and  _525
REMARK  224  A    between atoms: _528  and  _530
REMARK  225  A    between atoms: _530  and  _531
REMARK  226  A    between atoms: _530  and  _533
REMARK  227  A    between atoms: _533  and  _534
REMARK  228  A    between atoms: _537  and  _539
REMARK  229  A    between atoms: _539  and  _540
REMARK  230  A    between atoms: _539  and  _542
REMARK  231  A    between atoms: _542  and  _543
REMARK  232  A    between atoms: _543  and  _544
REMARK  233  A    between atoms: _544  and  _545
REMARK  234  A    between atoms: _545  and  _546
REMARK  235  A    between atoms: _550  and  _552
REMARK  236  A    between atoms: _552  and  _553
REMARK  237  A    between atoms: _552  and  _555
REMARK  238  A    between atoms: _555  and  _556
REMARK  239  A    between atoms: _556  and  _557
REMARK  240  A    between atoms: _560  and  _561
REMARK  241  A    between atoms: _566  and  _568
REMARK  242  A    between atoms: _568  and  _569
REMARK  243  A    between atoms: _568  and  _571
REMARK  244  A    between atoms: _571  and  _572
REMARK  245  A    between atoms: _575  and  _577
REMARK  246  A    between atoms: _577  and  _578
REMARK  247  A    between atoms: _577  and  _580
REMARK  248  A    between atoms: _580  and  _581
REMARK  249  A    between atoms: _581  and  _582
REMARK  250  A    between atoms: _582  and  _583
REMARK  251  A    between atoms: _592  and  _594
REMARK  252  A    between atoms: _594  and  _595
REMARK  253  A    between atoms: _594  and  _597
REMARK  254  A    between atoms: _597  and  _598
REMARK  255  A    between atoms: _598  and  _599
REMARK  256  A    between atoms: _601  and  _603
REMARK  257  A    between atoms: _603  and  _604
REMARK  258  A    between atoms: _603  and  _606
REMARK  259  A    between atoms: _606  and  _607
REMARK                            x       y       z     vdW  Elec       q    Type
REMARK                         _______ _______ _______ _____ _____    ______ ____
ROOT
ATOM      1  O   HOH     1      34.259  23.829  91.987  0.00  0.00    +0.000 OA
ENDROOT
TORSDOF 0
REMARK  Name = ../refined-set-2016/1fcz/1fcz_pocket.pdb
REMARK  259 active torsions:
REMARK  status: ('A' for Active; 'I' for Inactive)
REMARK    1  A    between atoms: _1  and  _3
REMARK    2  A    between atoms: _3  and  _4
REMARK    3  A    between atoms: _3  and  _6
REMARK    4  A    between atoms: _6  and  _7
REMARK    5  A    between atoms: _10  and  _12
REMARK    6  A    between atoms: _12  and  _13
REMARK    7  A    between atoms: _12  and  _15
REMARK    8  A    between atoms: _15  and  _16
REMARK    9  A    between atoms: _23  and  _24
REMARK   10  A    between atoms: _29  and  _31
REMARK   11  A    between atoms: _31  and  _32
REMARK   12  A    between atoms: _31  and  _34
REMARK   13  A    between atoms: _34  and  _35
REMARK   14  A    between atoms: _38  and  _40
REMARK   15  A    between atoms: _40  and  _41
REMARK   16  A    between atoms: _40  and  _43
REMARK   17  A    between atoms: _43  and  _44
REMARK   18  A    between atoms: _54  and  _56
REMARK   19  A    between atoms: _56  and  _57
REMARK   20  A    between atoms: _56  and  _59
REMARK   21  A    between atoms: _59  and  _60
REMARK   22  A    between atoms: _60  and  _61
REMARK   23  A    between atoms: _61  and  _62
REMARK   24  A    between atoms: _62  and  _63
REMARK   25  A    between atoms: _67  and  _69
REMARK   26  A    between atoms: _69  and  _70
REMARK   27  A    between atoms: _69  and  _72
REMARK   28  A    between atoms: _72  and  _73
REMARK   29  A    between atoms: _79  and  _81
REMARK   30  A    between atoms: _81  and  _82
REMARK   31  A    between atoms: _81  and  _84
REMARK   32  A    between atoms: _84  and  _85
REMARK   33  A    between atoms: _87  and  _89
REMARK   34  A    between atoms: _89  and  _90
REMARK   35  A    between atoms: _89  and  _92
REMARK   36  A    between atoms: _92  and  _93
REMARK   37  A    between atoms: _93  and  _94
REMARK   38  A    between atoms: _97  and  _99
REMARK   39  A    between atoms: _99  and  _100
REMARK   40  A    between atoms: _99  and  _102
REMARK   41  A    between atoms: _102  and  _103
REMARK   42  A    between atoms: _106  and  _108
REMARK   43  A    between atoms: _108  and  _109
REMARK   44  A    between atoms: _112  and  _114
REMARK   45  A    between atoms: _114  and  _115
REMARK   46  A    between atoms: _114  and  _117
REMARK   47  A    between atoms: _117  and  _118
REMARK   48  A    between atoms: _121  and  _123
REMARK   49  A    between atoms: _123  and  _124
REMARK   50  A    between atoms: _123  and  _126
REMARK   51  A    between atoms: _126  and  _127
REMARK   52  A    between atoms: _127  and  _128
REMARK   53  A    between atoms: _128  and  _129
REMARK   54  A    between atoms: _129  and  _130
REMARK   55  A    between atoms: _134  and  _136
REMARK   56  A    between atoms: _136  and  _137
REMARK   57  A    between atoms: _136  and  _139
REMARK   58  A    between atoms: _141  and  _143
REMARK   59  A    between atoms: _143  and  _144
REMARK   60  A    between atoms: _143  and  _146
REMARK   61  A    between atoms: _146  and  _147
REMARK   62  A    between atoms: _150  and  _152
REMARK   63  A    between atoms: _152  and  _153
REMARK   64  A    between atoms: _152  and  _155
REMARK   65  A    between atoms: _155  and  _156
REMARK   66  A    between atoms: _156  and  _157
REMARK   67  A    between atoms: _157  and  _158
REMARK   68  A    between atoms: _158  and  _159
REMARK   69  A    between atoms: _163  and  _165
REMARK   70  A    between atoms: _165  and  _166
REMARK   71  A    between atoms: _165  and  _168
REMARK   72  A    between atoms: _168  and  _169
REMARK   73  A    between atoms: _172  and  _174
REMARK   74  A    between atoms: _174  and  _175
REMARK   75  A    between atoms: _174  and  _177
REMARK   76  A    between atoms: _179  and  _181
REMARK   77  A    between atoms: _181  and  _182
REMARK   78  A    between atoms: _181  and  _184
REMARK   79  A    between atoms: _184  and  _185
REMARK   80  A    between atoms: _188  and  _190
REMARK   81  A    between atoms: _190  and  _191
REMARK   82  A    between atoms: _190  and  _193
REMARK   83  A    between atoms: _193  and  _194
REMARK   84  A    between atoms: _197  and  _199
REMARK   85  A    between atoms: _199  and  _200
REMARK   86  A    between atoms: _199  and  _202
REMARK   87  A    between atoms: _202  and  _203
REMARK   88  A    between atoms: _206  and  _208
REMARK   89  A    between atoms: _208  and  _209
REMARK   90  A    between atoms: _208  and  _211
REMARK   91  A    between atoms: _211  and  _212
REMARK   92  A    between atoms: _215  and  _217
REMARK   93  A    between atoms: _217  and  _218
REMARK   94  A    between atoms: _217  and  _220
REMARK   95  A    between atoms: _220  and  _221
REMARK   96  A    between atoms: _221  and  _222
REMARK   97  A    between atoms: _224  and  _226
REMARK   98  A    between atoms: _226  and  _227
REMARK   99  A    between atoms: _226  and  _229
REMARK  100  A    between atoms: _229  and  _230
REMARK  101  A    between atoms: _233  and  _235
REMARK  102  A    between atoms: _235  and  _236
REMARK  103  A    between atoms: _235  and  _238
REMARK  104  A    between atoms: _238  and  _239
REMARK  105  A    between atoms: _239  and  _240
REMARK  106  A    between atoms: _240  and  _241
REMARK  107  A    between atoms: _250  and  _252
REMARK  108  A    between atoms: _252  and  _253
REMARK  109  A    between atoms: _252  and  _255
REMARK  110  A    between atoms: _255  and  _256
REMARK  111  A    between atoms: _259  and  _261
REMARK  112  A    between atoms: _261  and  _262
REMARK  113  A    between atoms: _261  and  _264
REMARK  114  A    between atoms: _266  and  _268
REMARK  115  A    between atoms: _268  and  _269
REMARK  116  A    between atoms: _268  and  _271
REMARK  117  A    between atoms: _271  and  _272
REMARK  118  A    between atoms: _275  and  _277
REMARK  119  A    between atoms: _277  and  _278
REMARK  120  A    between atoms: _277  and  _280
REMARK  121  A    between atoms: _280  and  _281
REMARK  122  A    between atoms: _281  and  _282
REMARK  123  A    between atoms: _282  and  _283
REMARK  124  A    between atoms: _292  and  _294
REMARK  125  A    between atoms: _294  and  _295
REMARK  126  A    between atoms: _294  and  _297
REMARK  127  A    between atoms: _297  and  _298
REMARK  128  A    between atoms: _298  and  _299
REMARK  129  A    between atoms: _301  and  _303
REMARK  130  A    between atoms: _303  and  _304
REMARK  131  A    between atoms: _303  and  _306
REMARK  132  A    between atoms: _306  and  _307
REMARK  133  A    between atoms: _310  and  _312
REMARK  134  A    between atoms: _312  and  _313
REMARK  135  A    between atoms: _312  and  _315
REMARK  136  A    between atoms: _315  and  _316
REMARK  137  A    between atoms: _322  and  _324
REMARK  138  A    between atoms: _324  and  _325
REMARK  139  A    between atoms: _324  and  _327
REMARK  140  A    between atoms: _327  and  _328
REMARK  141  A    between atoms: _330  and  _332
REMARK  142  A    between atoms: _332  and  _333
REMARK  143  A    between atoms: _332  and  _335
REMARK  144  A    between atoms: _335  and  _336
REMARK  145  A    between atoms: _339  and  _341
REMARK  146  A    between atoms: _341  and  _342
REMARK  147  A    between atoms: _344  and  _346
REMARK  148  A    between atoms: _346  and  _347
REMARK  149  A    between atoms: _346  and  _349
REMARK  150  A    between atoms: _349  and  _350
REMARK  151  A    between atoms: _353  and  _355
REMARK  152  A    between atoms: _355  and  _356
REMARK  153  A    between atoms: _355  and  _358
REMARK  154  A    between atoms: _358  and  _359
REMARK  155  A    between atoms: _359  and  _360
REMARK  156  A    between atoms: _362  and  _364
REMARK  157  A    between atoms: _364  and  _365
REMARK  158  A    between atoms: _364  and  _367
REMARK  159  A    between atoms: _367  and  _368
REMARK  160  A    between atoms: _373  and  _375
REMARK  161  A    between atoms: _375  and  _376
REMARK  162  A    between atoms: _379  and  _381
REMARK  163  A    between atoms: _381  and  _382
REMARK  164  A    between atoms: _384  and  _386
REMARK  165  A    between atoms: _386  and  _387
REMARK  166  A    between atoms: _386  and  _389
REMARK  167  A    between atoms: _389  and  _390
REMARK  168  A    between atoms: _396  and  _398
REMARK  169  A    between atoms: _398  and  _399
REMARK  170  A    between atoms: _401  and  _403
REMARK  171  A    between atoms: _403  and  _404
REMARK  172  A    between atoms: _403  and  _406
REMARK  173  A    between atoms: _406  and  _407
REMARK  174  A    between atoms: _410  and  _412
REMARK  175  A    between atoms: _412  and  _413
REMARK  176  A    between atoms: _412  and  _415
REMARK  177  A    between atoms: _415  and  _416
REMARK  178  A    between atoms: _419  and  _421
REMARK  179  A    between atoms: _421  and  _422
REMARK  180  A    between atoms: _421  and  _424
REMARK  181  A    between atoms: _427  and  _429
REMARK  182  A    between atoms: _429  and  _430
REMARK  183  A    between atoms: _429  and  _432
REMARK  184  A    between atoms: _432  and  _433
REMARK  185  A    between atoms: _436  and  _438
REMARK  186  A    between atoms: _438  and  _439
REMARK  187  A    between atoms: _438  and  _441
REMARK  188  A    between atoms: _441  and  _442
REMARK  189  A    between atoms: _445  and  _447
REMARK  190  A    between atoms: _447  and  _448
REMARK  191  A    between atoms: _447  and  _450
REMARK  192  A    between atoms: _450  and  _451
REMARK  193  A    between atoms: _453  and  _455
REMARK  194  A    between atoms: _455  and  _456
REMARK  195  A    between atoms: _455  and  _458
REMARK  196  A    between atoms: _458  and  _459
REMARK  197  A    between atoms: _459  and  _460
REMARK  198  A    between atoms: _460  and  _461
REMARK  199  A    between atoms: _461  and  _462
REMARK  200  A    between atoms: _466  and  _468
REMARK  201  A    between atoms: _468  and  _469
REMARK  202  A    between atoms: _471  and  _473
REMARK  203  A    between atoms: _473  and  _474
REMARK  204  A    between atoms: _477  and  _479
REMARK  205  A    between atoms: _479  and  _480
REMARK  206  A    between atoms: _479  and  _482
REMARK  207  A    between atoms: _483  and  _484
REMARK  208  A    between atoms: _487  and  _489
REMARK  209  A    between atoms: _489  and  _490
REMARK  210  A    between atoms: _489  and  _492
REMARK  211  A    between atoms: _492  and  _493
REMARK  212  A    between atoms: _493  and  _494
REMARK  213  A    between atoms: _494  and  _495
REMARK  214  A    between atoms: _504  and  _506
REMARK  215  A    between atoms: _506  and  _507
REMARK  216  A    between atoms: _510  and  _512
REMARK  217  A    between atoms: _512  and  _513
REMARK  218  A    between atoms: _512  and  _515
REMARK  219  A    between atoms: _515  and  _516
REMARK  220  A    between atoms: _519  and  _521
REMARK  221  A    between atoms: _521  and  _522
REMARK  222  A    between atoms: _521  and  _524
REMARK  223  A    between atoms: _524  and  _525
REMARK  224  A    between atoms: _528  and  _530
REMARK  225  A    between atoms: _530  and  _531
REMARK  226  A    between atoms: _530  and  _533
REMARK  227  A    between atoms: _533  and  _534
REMARK  228  A    between atoms: _537  and  _539
REMARK  229  A    between atoms: _539  and  _540
REMARK  230  A    between atoms: _539  and  _542
REMARK  231  A    between atoms: _542  and  _543
REMARK  232  A    between atoms: _543  and  _544
REMARK  233  A    between atoms: _544  and  _545
REMARK  234  A    between atoms: _545  and  _546
REMARK  235  A    between atoms: _550  and  _552
REMARK  236  A    between atoms: _552  and  _553
REMARK  237  A    between atoms: _552  and  _555
REMARK  238  A    between atoms: _555  and  _556
REMARK  239  A    between atoms: _556  and  _557
REMARK  240  A    between atoms: _560  and  _561
REMARK  241  A    between atoms: _566  and  _568
REMARK  242  A    between atoms: _568  and  _569
REMARK  243  A    between atoms: _568  and  _571
REMARK  244  A    between atoms: _571  and  _572
REMARK  245  A    between atoms: _575  and  _577
REMARK  246  A    between atoms: _577  and  _578
REMARK  247  A    between atoms: _577  and  _580
REMARK  248  A    between atoms: _580  and  _581
REMARK  249  A    between atoms: _581  and  _582
REMARK  250  A    between atoms: _582  and  _583
REMARK  251  A    between atoms: _592  and  _594
REMARK  252  A    between atoms: _594  and  _595
REMARK  253  A    between atoms: _594  and  _597
REMARK  254  A    between atoms: _597  and  _598
REMARK  255  A    between atoms: _598  and  _599
REMARK  256  A    between atoms: _601  and  _603
REMARK  257  A    between atoms: _603  and  _604
REMARK  258  A    between atoms: _603  and  _606
REMARK  259  A    between atoms: _606  and  _607
REMARK                            x       y       z     vdW  Elec       q    Type
REMARK                         _______ _______ _______ _____ _____    ______ ____
ROOT
ATOM      1  O   HOH     1      33.336  26.155  88.102  0.00  0.00    +0.000 OA
ENDROOT
TORSDOF 0
REMARK  Name = ../refined-set-2016/1fcz/1fcz_pocket.pdb
REMARK  259 active torsions:
REMARK  status: ('A' for Active; 'I' for Inactive)
REMARK    1  A    between atoms: _1  and  _3
REMARK    2  A    between atoms: _3  and  _4
REMARK    3  A    between atoms: _3  and  _6
REMARK    4  A    between atoms: _6  and  _7
REMARK    5  A    between atoms: _10  and  _12
REMARK    6  A    between atoms: _12  and  _13
REMARK    7  A    between atoms: _12  and  _15
REMARK    8  A    between atoms: _15  and  _16
REMARK    9  A    between atoms: _23  and  _24
REMARK   10  A    between atoms: _29  and  _31
REMARK   11  A    between atoms: _31  and  _32
REMARK   12  A    between atoms: _31  and  _34
REMARK   13  A    between atoms: _34  and  _35
REMARK   14  A    between atoms: _38  and  _40
REMARK   15  A    between atoms: _40  and  _41
REMARK   16  A    between atoms: _40  and  _43
REMARK   17  A    between atoms: _43  and  _44
REMARK   18  A    between atoms: _54  and  _56
REMARK   19  A    between atoms: _56  and  _57
REMARK   20  A    between atoms: _56  and  _59
REMARK   21  A    between atoms: _59  and  _60
REMARK   22  A    between atoms: _60  and  _61
REMARK   23  A    between atoms: _61  and  _62
REMARK   24  A    between atoms: _62  and  _63
REMARK   25  A    between atoms: _67  and  _69
REMARK   26  A    between atoms: _69  and  _70
REMARK   27  A    between atoms: _69  and  _72
REMARK   28  A    between atoms: _72  and  _73
REMARK   29  A    between atoms: _79  and  _81
REMARK   30  A    between atoms: _81  and  _82
REMARK   31  A    between atoms: _81  and  _84
REMARK   32  A    between atoms: _84  and  _85
REMARK   33  A    between atoms: _87  and  _89
REMARK   34  A    between atoms: _89  and  _90
REMARK   35  A    between atoms: _89  and  _92
REMARK   36  A    between atoms: _92  and  _93
REMARK   37  A    between atoms: _93  and  _94
REMARK   38  A    between atoms: _97  and  _99
REMARK   39  A    between atoms: _99  and  _100
REMARK   40  A    between atoms: _99  and  _102
REMARK   41  A    between atoms: _102  and  _103
REMARK   42  A    between atoms: _106  and  _108
REMARK   43  A    between atoms: _108  and  _109
REMARK   44  A    between atoms: _112  and  _114
REMARK   45  A    between atoms: _114  and  _115
REMARK   46  A    between atoms: _114  and  _117
REMARK   47  A    between atoms: _117  and  _118
REMARK   48  A    between atoms: _121  and  _123
REMARK   49  A    between atoms: _123  and  _124
REMARK   50  A    between atoms: _123  and  _126
REMARK   51  A    between atoms: _126  and  _127
REMARK   52  A    between atoms: _127  and  _128
REMARK   53  A    between atoms: _128  and  _129
REMARK   54  A    between atoms: _129  and  _130
REMARK   55  A    between atoms: _134  and  _136
REMARK   56  A    between atoms: _136  and  _137
REMARK   57  A    between atoms: _136  and  _139
REMARK   58  A    between atoms: _141  and  _143
REMARK   59  A    between atoms: _143  and  _144
REMARK   60  A    between atoms: _143  and  _146
REMARK   61  A    between atoms: _146  and  _147
REMARK   62  A    between atoms: _150  and  _152
REMARK   63  A    between atoms: _152  and  _153
REMARK   64  A    between atoms: _152  and  _155
REMARK   65  A    between atoms: _155  and  _156
REMARK   66  A    between atoms: _156  and  _157
REMARK   67  A    between atoms: _157  and  _158
REMARK   68  A    between atoms: _158  and  _159
REMARK   69  A    between atoms: _163  and  _165
REMARK   70  A    between atoms: _165  and  _166
REMARK   71  A    between atoms: _165  and  _168
REMARK   72  A    between atoms: _168  and  _169
REMARK   73  A    between atoms: _172  and  _174
REMARK   74  A    between atoms: _174  and  _175
REMARK   75  A    between atoms: _174  and  _177
REMARK   76  A    between atoms: _179  and  _181
REMARK   77  A    between atoms: _181  and  _182
REMARK   78  A    between atoms: _181  and  _184
REMARK   79  A    between atoms: _184  and  _185
REMARK   80  A    between atoms: _188  and  _190
REMARK   81  A    between atoms: _190  and  _191
REMARK   82  A    between atoms: _190  and  _193
REMARK   83  A    between atoms: _193  and  _194
REMARK   84  A    between atoms: _197  and  _199
REMARK   85  A    between atoms: _199  and  _200
REMARK   86  A    between atoms: _199  and  _202
REMARK   87  A    between atoms: _202  and  _203
REMARK   88  A    between atoms: _206  and  _208
REMARK   89  A    between atoms: _208  and  _209
REMARK   90  A    between atoms: _208  and  _211
REMARK   91  A    between atoms: _211  and  _212
REMARK   92  A    between atoms: _215  and  _217
REMARK   93  A    between atoms: _217  and  _218
REMARK   94  A    between atoms: _217  and  _220
REMARK   95  A    between atoms: _220  and  _221
REMARK   96  A    between atoms: _221  and  _222
REMARK   97  A    between atoms: _224  and  _226
REMARK   98  A    between atoms: _226  and  _227
REMARK   99  A    between atoms: _226  and  _229
REMARK  100  A    between atoms: _229  and  _230
REMARK  101  A    between atoms: _233  and  _235
REMARK  102  A    between atoms: _235  and  _236
REMARK  103  A    between atoms: _235  and  _238
REMARK  104  A    between atoms: _238  and  _239
REMARK  105  A    between atoms: _239  and  _240
REMARK  106  A    between atoms: _240  and  _241
REMARK  107  A    between atoms: _250  and  _252
REMARK  108  A    between atoms: _252  and  _253
REMARK  109  A    between atoms: _252  and  _255
REMARK  110  A    between atoms: _255  and  _256
REMARK  111  A    between atoms: _259  and  _261
REMARK  112  A    between atoms: _261  and  _262
REMARK  113  A    between atoms: _261  and  _264
REMARK  114  A    between atoms: _266  and  _268
REMARK  115  A    between atoms: _268  and  _269
REMARK  116  A    between atoms: _268  and  _271
REMARK  117  A    between atoms: _271  and  _272
REMARK  118  A    between atoms: _275  and  _277
REMARK  119  A    between atoms: _277  and  _278
REMARK  120  A    between atoms: _277  and  _280
REMARK  121  A    between atoms: _280  and  _281
REMARK  122  A    between atoms: _281  and  _282
REMARK  123  A    between atoms: _282  and  _283
REMARK  124  A    between atoms: _292  and  _294
REMARK  125  A    between atoms: _294  and  _295
REMARK  126  A    between atoms: _294  and  _297
REMARK  127  A    between atoms: _297  and  _298
REMARK  128  A    between atoms: _298  and  _299
REMARK  129  A    between atoms: _301  and  _303
REMARK  130  A    between atoms: _303  and  _304
REMARK  131  A    between atoms: _303  and  _306
REMARK  132  A    between atoms: _306  and  _307
REMARK  133  A    between atoms: _310  and  _312
REMARK  134  A    between atoms: _312  and  _313
REMARK  135  A    between atoms: _312  and  _315
REMARK  136  A    between atoms: _315  and  _316
REMARK  137  A    between atoms: _322  and  _324
REMARK  138  A    between atoms: _324  and  _325
REMARK  139  A    between atoms: _324  and  _327
REMARK  140  A    between atoms: _327  and  _328
REMARK  141  A    between atoms: _330  and  _332
REMARK  142  A    between atoms: _332  and  _333
REMARK  143  A    between atoms: _332  and  _335
REMARK  144  A    between atoms: _335  and  _336
REMARK  145  A    between atoms: _339  and  _341
REMARK  146  A    between atoms: _341  and  _342
REMARK  147  A    between atoms: _344  and  _346
REMARK  148  A    between atoms: _346  and  _347
REMARK  149  A    between atoms: _346  and  _349
REMARK  150  A    between atoms: _349  and  _350
REMARK  151  A    between atoms: _353  and  _355
REMARK  152  A    between atoms: _355  and  _356
REMARK  153  A    between atoms: _355  and  _358
REMARK  154  A    between atoms: _358  and  _359
REMARK  155  A    between atoms: _359  and  _360
REMARK  156  A    between atoms: _362  and  _364
REMARK  157  A    between atoms: _364  and  _365
REMARK  158  A    between atoms: _364  and  _367
REMARK  159  A    between atoms: _367  and  _368
REMARK  160  A    between atoms: _373  and  _375
REMARK  161  A    between atoms: _375  and  _376
REMARK  162  A    between atoms: _379  and  _381
REMARK  163  A    between atoms: _381  and  _382
REMARK  164  A    between atoms: _384  and  _386
REMARK  165  A    between atoms: _386  and  _387
REMARK  166  A    between atoms: _386  and  _389
REMARK  167  A    between atoms: _389  and  _390
REMARK  168  A    between atoms: _396  and  _398
REMARK  169  A    between atoms: _398  and  _399
REMARK  170  A    between atoms: _401  and  _403
REMARK  171  A    between atoms: _403  and  _404
REMARK  172  A    between atoms: _403  and  _406
REMARK  173  A    between atoms: _406  and  _407
REMARK  174  A    between atoms: _410  and  _412
REMARK  175  A    between atoms: _412  and  _413
REMARK  176  A    between atoms: _412  and  _415
REMARK  177  A    between atoms: _415  and  _416
REMARK  178  A    between atoms: _419  and  _421
REMARK  179  A    between atoms: _421  and  _422
REMARK  180  A    between atoms: _421  and  _424
REMARK  181  A    between atoms: _427  and  _429
REMARK  182  A    between atoms: _429  and  _430
REMARK  183  A    between atoms: _429  and  _432
REMARK  184  A    between atoms: _432  and  _433
REMARK  185  A    between atoms: _436  and  _438
REMARK  186  A    between atoms: _438  and  _439
REMARK  187  A    between atoms: _438  and  _441
REMARK  188  A    between atoms: _441  and  _442
REMARK  189  A    between atoms: _445  and  _447
REMARK  190  A    between atoms: _447  and  _448
REMARK  191  A    between atoms: _447  and  _450
REMARK  192  A    between atoms: _450  and  _451
REMARK  193  A    between atoms: _453  and  _455
REMARK  194  A    between atoms: _455  and  _456
REMARK  195  A    between atoms: _455  and  _458
REMARK  196  A    between atoms: _458  and  _459
REMARK  197  A    between atoms: _459  and  _460
REMARK  198  A    between atoms: _460  and  _461
REMARK  199  A    between atoms: _461  and  _462
REMARK  200  A    between atoms: _466  and  _468
REMARK  201  A    between atoms: _468  and  _469
REMARK  202  A    between atoms: _471  and  _473
REMARK  203  A    between atoms: _473  and  _474
REMARK  204  A    between atoms: _477  and  _479
REMARK  205  A    between atoms: _479  and  _480
REMARK  206  A    between atoms: _479  and  _482
REMARK  207  A    between atoms: _483  and  _484
REMARK  208  A    between atoms: _487  and  _489
REMARK  209  A    between atoms: _489  and  _490
REMARK  210  A    between atoms: _489  and  _492
REMARK  211  A    between atoms: _492  and  _493
REMARK  212  A    between atoms: _493  and  _494
REMARK  213  A    between atoms: _494  and  _495
REMARK  214  A    between atoms: _504  and  _506
REMARK  215  A    between atoms: _506  and  _507
REMARK  216  A    between atoms: _510  and  _512
REMARK  217  A    between atoms: _512  and  _513
REMARK  218  A    between atoms: _512  and  _515
REMARK  219  A    between atoms: _515  and  _516
REMARK  220  A    between atoms: _519  and  _521
REMARK  221  A    between atoms: _521  and  _522
REMARK  222  A    between atoms: _521  and  _524
REMARK  223  A    between atoms: _524  and  _525
REMARK  224  A    between atoms: _528  and  _530
REMARK  225  A    between atoms: _530  and  _531
REMARK  226  A    between atoms: _530  and  _533
REMARK  227  A    between atoms: _533  and  _534
REMARK  228  A    between atoms: _537  and  _539
REMARK  229  A    between atoms: _539  and  _540
REMARK  230  A    between atoms: _539  and  _542
REMARK  231  A    between atoms: _542  and  _543
REMARK  232  A    between atoms: _543  and  _544
REMARK  233  A    between atoms: _544  and  _545
REMARK  234  A    between atoms: _545  and  _546
REMARK  235  A    between atoms: _550  and  _552
REMARK  236  A    between atoms: _552  and  _553
REMARK  237  A    between atoms: _552  and  _555
REMARK  238  A    between atoms: _555  and  _556
REMARK  239  A    between atoms: _556  and  _557
REMARK  240  A    between atoms: _560  and  _561
REMARK  241  A    between atoms: _566  and  _568
REMARK  242  A    between atoms: _568  and  _569
REMARK  243  A    between atoms: _568  and  _571
REMARK  244  A    between atoms: _571  and  _572
REMARK  245  A    between atoms: _575  and  _577
REMARK  246  A    between atoms: _577  and  _578
REMARK  247  A    between atoms: _577  and  _580
REMARK  248  A    between atoms: _580  and  _581
REMARK  249  A    between atoms: _581  and  _582
REMARK  250  A    between atoms: _582  and  _583
REMARK  251  A    between atoms: _592  and  _594
REMARK  252  A    between atoms: _594  and  _595
REMARK  253  A    between atoms: _594  and  _597
REMARK  254  A    between atoms: _597  and  _598
REMARK  255  A    between atoms: _598  and  _599
REMARK  256  A    between atoms: _601  and  _603
REMARK  257  A    between atoms: _603  and  _604
REMARK  258  A    between atoms: _603  and  _606
REMARK  259  A    between atoms: _606  and  _607
REMARK                            x       y       z     vdW  Elec       q    Type
REMARK                         _______ _______ _______ _____ _____    ______ ____
ROOT
ATOM      1  O   HOH     1      51.976  12.677  82.264  0.00  0.00    +0.000 OA
ENDROOT
TORSDOF 0
REMARK  Name = ../refined-set-2016/1fcz/1fcz_pocket.pdb
REMARK  259 active torsions:
REMARK  status: ('A' for Active; 'I' for Inactive)
REMARK    1  A    between atoms: _1  and  _3
REMARK    2  A    between atoms: _3  and  _4
REMARK    3  A    between atoms: _3  and  _6
REMARK    4  A    between atoms: _6  and  _7
REMARK    5  A    between atoms: _10  and  _12
REMARK    6  A    between atoms: _12  and  _13
REMARK    7  A    between atoms: _12  and  _15
REMARK    8  A    between atoms: _15  and  _16
REMARK    9  A    between atoms: _23  and  _24
REMARK   10  A    between atoms: _29  and  _31
REMARK   11  A    between atoms: _31  and  _32
REMARK   12  A    between atoms: _31  and  _34
REMARK   13  A    between atoms: _34  and  _35
REMARK   14  A    between atoms: _38  and  _40
REMARK   15  A    between atoms: _40  and  _41
REMARK   16  A    between atoms: _40  and  _43
REMARK   17  A    between atoms: _43  and  _44
REMARK   18  A    between atoms: _54  and  _56
REMARK   19  A    between atoms: _56  and  _57
REMARK   20  A    between atoms: _56  and  _59
REMARK   21  A    between atoms: _59  and  _60
REMARK   22  A    between atoms: _60  and  _61
REMARK   23  A    between atoms: _61  and  _62
REMARK   24  A    between atoms: _62  and  _63
REMARK   25  A    between atoms: _67  and  _69
REMARK   26  A    between atoms: _69  and  _70
REMARK   27  A    between atoms: _69  and  _72
REMARK   28  A    between atoms: _72  and  _73
REMARK   29  A    between atoms: _79  and  _81
REMARK   30  A    between atoms: _81  and  _82
REMARK   31  A    between atoms: _81  and  _84
REMARK   32  A    between atoms: _84  and  _85
REMARK   33  A    between atoms: _87  and  _89
REMARK   34  A    between atoms: _89  and  _90
REMARK   35  A    between atoms: _89  and  _92
REMARK   36  A    between atoms: _92  and  _93
REMARK   37  A    between atoms: _93  and  _94
REMARK   38  A    between atoms: _97  and  _99
REMARK   39  A    between atoms: _99  and  _100
REMARK   40  A    between atoms: _99  and  _102
REMARK   41  A    between atoms: _102  and  _103
REMARK   42  A    between atoms: _106  and  _108
REMARK   43  A    between atoms: _108  and  _109
REMARK   44  A    between atoms: _112  and  _114
REMARK   45  A    between atoms: _114  and  _115
REMARK   46  A    between atoms: _114  and  _117
REMARK   47  A    between atoms: _117  and  _118
REMARK   48  A    between atoms: _121  and  _123
REMARK   49  A    between atoms: _123  and  _124
REMARK   50  A    between atoms: _123  and  _126
REMARK   51  A    between atoms: _126  and  _127
REMARK   52  A    between atoms: _127  and  _128
REMARK   53  A    between atoms: _128  and  _129
REMARK   54  A    between atoms: _129  and  _130
REMARK   55  A    between atoms: _134  and  _136
REMARK   56  A    between atoms: _136  and  _137
REMARK   57  A    between atoms: _136  and  _139
REMARK   58  A    between atoms: _141  and  _143
REMARK   59  A    between atoms: _143  and  _144
REMARK   60  A    between atoms: _143  and  _146
REMARK   61  A    between atoms: _146  and  _147
REMARK   62  A    between atoms: _150  and  _152
REMARK   63  A    between atoms: _152  and  _153
REMARK   64  A    between atoms: _152  and  _155
REMARK   65  A    between atoms: _155  and  _156
REMARK   66  A    between atoms: _156  and  _157
REMARK   67  A    between atoms: _157  and  _158
REMARK   68  A    between atoms: _158  and  _159
REMARK   69  A    between atoms: _163  and  _165
REMARK   70  A    between atoms: _165  and  _166
REMARK   71  A    between atoms: _165  and  _168
REMARK   72  A    between atoms: _168  and  _169
REMARK   73  A    between atoms: _172  and  _174
REMARK   74  A    between atoms: _174  and  _175
REMARK   75  A    between atoms: _174  and  _177
REMARK   76  A    between atoms: _179  and  _181
REMARK   77  A    between atoms: _181  and  _182
REMARK   78  A    between atoms: _181  and  _184
REMARK   79  A    between atoms: _184  and  _185
REMARK   80  A    between atoms: _188  and  _190
REMARK   81  A    between atoms: _190  and  _191
REMARK   82  A    between atoms: _190  and  _193
REMARK   83  A    between atoms: _193  and  _194
REMARK   84  A    between atoms: _197  and  _199
REMARK   85  A    between atoms: _199  and  _200
REMARK   86  A    between atoms: _199  and  _202
REMARK   87  A    between atoms: _202  and  _203
REMARK   88  A    between atoms: _206  and  _208
REMARK   89  A    between atoms: _208  and  _209
REMARK   90  A    between atoms: _208  and  _211
REMARK   91  A    between atoms: _211  and  _212
REMARK   92  A    between atoms: _215  and  _217
REMARK   93  A    between atoms: _217  and  _218
REMARK   94  A    between atoms: _217  and  _220
REMARK   95  A    between atoms: _220  and  _221
REMARK   96  A    between atoms: _221  and  _222
REMARK   97  A    between atoms: _224  and  _226
REMARK   98  A    between atoms: _226  and  _227
REMARK   99  A    between atoms: _226  and  _229
REMARK  100  A    between atoms: _229  and  _230
REMARK  101  A    between atoms: _233  and  _235
REMARK  102  A    between atoms: _235  and  _236
REMARK  103  A    between atoms: _235  and  _238
REMARK  104  A    between atoms: _238  and  _239
REMARK  105  A    between atoms: _239  and  _240
REMARK  106  A    between atoms: _240  and  _241
REMARK  107  A    between atoms: _250  and  _252
REMARK  108  A    between atoms: _252  and  _253
REMARK  109  A    between atoms: _252  and  _255
REMARK  110  A    between atoms: _255  and  _256
REMARK  111  A    between atoms: _259  and  _261
REMARK  112  A    between atoms: _261  and  _262
REMARK  113  A    between atoms: _261  and  _264
REMARK  114  A    between atoms: _266  and  _268
REMARK  115  A    between atoms: _268  and  _269
REMARK  116  A    between atoms: _268  and  _271
REMARK  117  A    between atoms: _271  and  _272
REMARK  118  A    between atoms: _275  and  _277
REMARK  119  A    between atoms: _277  and  _278
REMARK  120  A    between atoms: _277  and  _280
REMARK  121  A    between atoms: _280  and  _281
REMARK  122  A    between atoms: _281  and  _282
REMARK  123  A    between atoms: _282  and  _283
REMARK  124  A    between atoms: _292  and  _294
REMARK  125  A    between atoms: _294  and  _295
REMARK  126  A    between atoms: _294  and  _297
REMARK  127  A    between atoms: _297  and  _298
REMARK  128  A    between atoms: _298  and  _299
REMARK  129  A    between atoms: _301  and  _303
REMARK  130  A    between atoms: _303  and  _304
REMARK  131  A    between atoms: _303  and  _306
REMARK  132  A    between atoms: _306  and  _307
REMARK  133  A    between atoms: _310  and  _312
REMARK  134  A    between atoms: _312  and  _313
REMARK  135  A    between atoms: _312  and  _315
REMARK  136  A    between atoms: _315  and  _316
REMARK  137  A    between atoms: _322  and  _324
REMARK  138  A    between atoms: _324  and  _325
REMARK  139  A    between atoms: _324  and  _327
REMARK  140  A    between atoms: _327  and  _328
REMARK  141  A    between atoms: _330  and  _332
REMARK  142  A    between atoms: _332  and  _333
REMARK  143  A    between atoms: _332  and  _335
REMARK  144  A    between atoms: _335  and  _336
REMARK  145  A    between atoms: _339  and  _341
REMARK  146  A    between atoms: _341  and  _342
REMARK  147  A    between atoms: _344  and  _346
REMARK  148  A    between atoms: _346  and  _347
REMARK  149  A    between atoms: _346  and  _349
REMARK  150  A    between atoms: _349  and  _350
REMARK  151  A    between atoms: _353  and  _355
REMARK  152  A    between atoms: _355  and  _356
REMARK  153  A    between atoms: _355  and  _358
REMARK  154  A    between atoms: _358  and  _359
REMARK  155  A    between atoms: _359  and  _360
REMARK  156  A    between atoms: _362  and  _364
REMARK  157  A    between atoms: _364  and  _365
REMARK  158  A    between atoms: _364  and  _367
REMARK  159  A    between atoms: _367  and  _368
REMARK  160  A    between atoms: _373  and  _375
REMARK  161  A    between atoms: _375  and  _376
REMARK  162  A    between atoms: _379  and  _381
REMARK  163  A    between atoms: _381  and  _382
REMARK  164  A    between atoms: _384  and  _386
REMARK  165  A    between atoms: _386  and  _387
REMARK  166  A    between atoms: _386  and  _389
REMARK  167  A    between atoms: _389  and  _390
REMARK  168  A    between atoms: _396  and  _398
REMARK  169  A    between atoms: _398  and  _399
REMARK  170  A    between atoms: _401  and  _403
REMARK  171  A    between atoms: _403  and  _404
REMARK  172  A    between atoms: _403  and  _406
REMARK  173  A    between atoms: _406  and  _407
REMARK  174  A    between atoms: _410  and  _412
REMARK  175  A    between atoms: _412  and  _413
REMARK  176  A    between atoms: _412  and  _415
REMARK  177  A    between atoms: _415  and  _416
REMARK  178  A    between atoms: _419  and  _421
REMARK  179  A    between atoms: _421  and  _422
REMARK  180  A    between atoms: _421  and  _424
REMARK  181  A    between atoms: _427  and  _429
REMARK  182  A    between atoms: _429  and  _430
REMARK  183  A    between atoms: _429  and  _432
REMARK  184  A    between atoms: _432  and  _433
REMARK  185  A    between atoms: _436  and  _438
REMARK  186  A    between atoms: _438  and  _439
REMARK  187  A    between atoms: _438  and  _441
REMARK  188  A    between atoms: _441  and  _442
REMARK  189  A    between atoms: _445  and  _447
REMARK  190  A    between atoms: _447  and  _448
REMARK  191  A    between atoms: _447  and  _450
REMARK  192  A    between atoms: _450  and  _451
REMARK  193  A    between atoms: _453  and  _455
REMARK  194  A    between atoms: _455  and  _456
REMARK  195  A    between atoms: _455  and  _458
REMARK  196  A    between atoms: _458  and  _459
REMARK  197  A    between atoms: _459  and  _460
REMARK  198  A    between atoms: _460  and  _461
REMARK  199  A    between atoms: _461  and  _462
REMARK  200  A    between atoms: _466  and  _468
REMARK  201  A    between atoms: _468  and  _469
REMARK  202  A    between atoms: _471  and  _473
REMARK  203  A    between atoms: _473  and  _474
REMARK  204  A    between atoms: _477  and  _479
REMARK  205  A    between atoms: _479  and  _480
REMARK  206  A    between atoms: _479  and  _482
REMARK  207  A    between atoms: _483  and  _484
REMARK  208  A    between atoms: _487  and  _489
REMARK  209  A    between atoms: _489  and  _490
REMARK  210  A    between atoms: _489  and  _492
REMARK  211  A    between atoms: _492  and  _493
REMARK  212  A    between atoms: _493  and  _494
REMARK  213  A    between atoms: _494  and  _495
REMARK  214  A    between atoms: _504  and  _506
REMARK  215  A    between atoms: _506  and  _507
REMARK  216  A    between atoms: _510  and  _512
REMARK  217  A    between atoms: _512  and  _513
REMARK  218  A    between atoms: _512  and  _515
REMARK  219  A    between atoms: _515  and  _516
REMARK  220  A    between atoms: _519  and  _521
REMARK  221  A    between atoms: _521  and  _522
REMARK  222  A    between atoms: _521  and  _524
REMARK  223  A    between atoms: _524  and  _525
REMARK  224  A    between atoms: _528  and  _530
REMARK  225  A    between atoms: _530  and  _531
REMARK  226  A    between atoms: _530  and  _533
REMARK  227  A    between atoms: _533  and  _534
REMARK  228  A    between atoms: _537  and  _539
REMARK  229  A    between atoms: _539  and  _540
REMARK  230  A    between atoms: _539  and  _542
REMARK  231  A    between atoms: _542  and  _543
REMARK  232  A    between atoms: _543  and  _544
REMARK  233  A    between atoms: _544  and  _545
REMARK  234  A    between atoms: _545  and  _546
REMARK  235  A    between atoms: _550  and  _552
REMARK  236  A    between atoms: _552  and  _553
REMARK  237  A    between atoms: _552  and  _555
REMARK  238  A    between atoms: _555  and  _556
REMARK  239  A    between atoms: _556  and  _557
REMARK  240  A    between atoms: _560  and  _561
REMARK  241  A    between atoms: _566  and  _568
REMARK  242  A    between atoms: _568  and  _569
REMARK  243  A    between atoms: _568  and  _571
REMARK  244  A    between atoms: _571  and  _572
REMARK  245  A    between atoms: _575  and  _577
REMARK  246  A    between atoms: _577  and  _578
REMARK  247  A    between atoms: _577  and  _580
REMARK  248  A    between atoms: _580  and  _581
REMARK  249  A    between atoms: _581  and  _582
REMARK  250  A    between atoms: _582  and  _583
REMARK  251  A    between atoms: _592  and  _594
REMARK  252  A    between atoms: _594  and  _595
REMARK  253  A    between atoms: _594  and  _597
REMARK  254  A    between atoms: _597  and  _598
REMARK  255  A    between atoms: _598  and  _599
REMARK  256  A    between atoms: _601  and  _603
REMARK  257  A    between atoms: _603  and  _604
REMARK  258  A    between atoms: _603  and  _606
REMARK  259  A    between atoms: _606  and  _607
REMARK                            x       y       z     vdW  Elec       q    Type
REMARK                         _______ _______ _______ _____ _____    ______ ____
ROOT
ATOM      1  O   HOH     1      53.323  14.535  81.591  0.00  0.00    +0.000 OA
ENDROOT
TORSDOF 0
REMARK  Name = ../refined-set-2016/1fcz/1fcz_pocket.pdb
REMARK  259 active torsions:
REMARK  status: ('A' for Active; 'I' for Inactive)
REMARK    1  A    between atoms: _1  and  _3
REMARK    2  A    between atoms: _3  and  _4
REMARK    3  A    between atoms: _3  and  _6
REMARK    4  A    between atoms: _6  and  _7
REMARK    5  A    between atoms: _10  and  _12
REMARK    6  A    between atoms: _12  and  _13
REMARK    7  A    between atoms: _12  and  _15
REMARK    8  A    between atoms: _15  and  _16
REMARK    9  A    between atoms: _23  and  _24
REMARK   10  A    between atoms: _29  and  _31
REMARK   11  A    between atoms: _31  and  _32
REMARK   12  A    between atoms: _31  and  _34
REMARK   13  A    between atoms: _34  and  _35
REMARK   14  A    between atoms: _38  and  _40
REMARK   15  A    between atoms: _40  and  _41
REMARK   16  A    between atoms: _40  and  _43
REMARK   17  A    between atoms: _43  and  _44
REMARK   18  A    between atoms: _54  and  _56
REMARK   19  A    between atoms: _56  and  _57
REMARK   20  A    between atoms: _56  and  _59
REMARK   21  A    between atoms: _59  and  _60
REMARK   22  A    between atoms: _60  and  _61
REMARK   23  A    between atoms: _61  and  _62
REMARK   24  A    between atoms: _62  and  _63
REMARK   25  A    between atoms: _67  and  _69
REMARK   26  A    between atoms: _69  and  _70
REMARK   27  A    between atoms: _69  and  _72
REMARK   28  A    between atoms: _72  and  _73
REMARK   29  A    between atoms: _79  and  _81
REMARK   30  A    between atoms: _81  and  _82
REMARK   31  A    between atoms: _81  and  _84
REMARK   32  A    between atoms: _84  and  _85
REMARK   33  A    between atoms: _87  and  _89
REMARK   34  A    between atoms: _89  and  _90
REMARK   35  A    between atoms: _89  and  _92
REMARK   36  A    between atoms: _92  and  _93
REMARK   37  A    between atoms: _93  and  _94
REMARK   38  A    between atoms: _97  and  _99
REMARK   39  A    between atoms: _99  and  _100
REMARK   40  A    between atoms: _99  and  _102
REMARK   41  A    between atoms: _102  and  _103
REMARK   42  A    between atoms: _106  and  _108
REMARK   43  A    between atoms: _108  and  _109
REMARK   44  A    between atoms: _112  and  _114
REMARK   45  A    between atoms: _114  and  _115
REMARK   46  A    between atoms: _114  and  _117
REMARK   47  A    between atoms: _117  and  _118
REMARK   48  A    between atoms: _121  and  _123
REMARK   49  A    between atoms: _123  and  _124
REMARK   50  A    between atoms: _123  and  _126
REMARK   51  A    between atoms: _126  and  _127
REMARK   52  A    between atoms: _127  and  _128
REMARK   53  A    between atoms: _128  and  _129
REMARK   54  A    between atoms: _129  and  _130
REMARK   55  A    between atoms: _134  and  _136
REMARK   56  A    between atoms: _136  and  _137
REMARK   57  A    between atoms: _136  and  _139
REMARK   58  A    between atoms: _141  and  _143
REMARK   59  A    between atoms: _143  and  _144
REMARK   60  A    between atoms: _143  and  _146
REMARK   61  A    between atoms: _146  and  _147
REMARK   62  A    between atoms: _150  and  _152
REMARK   63  A    between atoms: _152  and  _153
REMARK   64  A    between atoms: _152  and  _155
REMARK   65  A    between atoms: _155  and  _156
REMARK   66  A    between atoms: _156  and  _157
REMARK   67  A    between atoms: _157  and  _158
REMARK   68  A    between atoms: _158  and  _159
REMARK   69  A    between atoms: _163  and  _165
REMARK   70  A    between atoms: _165  and  _166
REMARK   71  A    between atoms: _165  and  _168
REMARK   72  A    between atoms: _168  and  _169
REMARK   73  A    between atoms: _172  and  _174
REMARK   74  A    between atoms: _174  and  _175
REMARK   75  A    between atoms: _174  and  _177
REMARK   76  A    between atoms: _179  and  _181
REMARK   77  A    between atoms: _181  and  _182
REMARK   78  A    between atoms: _181  and  _184
REMARK   79  A    between atoms: _184  and  _185
REMARK   80  A    between atoms: _188  and  _190
REMARK   81  A    between atoms: _190  and  _191
REMARK   82  A    between atoms: _190  and  _193
REMARK   83  A    between atoms: _193  and  _194
REMARK   84  A    between atoms: _197  and  _199
REMARK   85  A    between atoms: _199  and  _200
REMARK   86  A    between atoms: _199  and  _202
REMARK   87  A    between atoms: _202  and  _203
REMARK   88  A    between atoms: _206  and  _208
REMARK   89  A    between atoms: _208  and  _209
REMARK   90  A    between atoms: _208  and  _211
REMARK   91  A    between atoms: _211  and  _212
REMARK   92  A    between atoms: _215  and  _217
REMARK   93  A    between atoms: _217  and  _218
REMARK   94  A    between atoms: _217  and  _220
REMARK   95  A    between atoms: _220  and  _221
REMARK   96  A    between atoms: _221  and  _222
REMARK   97  A    between atoms: _224  and  _226
REMARK   98  A    between atoms: _226  and  _227
REMARK   99  A    between atoms: _226  and  _229
REMARK  100  A    between atoms: _229  and  _230
REMARK  101  A    between atoms: _233  and  _235
REMARK  102  A    between atoms: _235  and  _236
REMARK  103  A    between atoms: _235  and  _238
REMARK  104  A    between atoms: _238  and  _239
REMARK  105  A    between atoms: _239  and  _240
REMARK  106  A    between atoms: _240  and  _241
REMARK  107  A    between atoms: _250  and  _252
REMARK  108  A    between atoms: _252  and  _253
REMARK  109  A    between atoms: _252  and  _255
REMARK  110  A    between atoms: _255  and  _256
REMARK  111  A    between atoms: _259  and  _261
REMARK  112  A    between atoms: _261  and  _262
REMARK  113  A    between atoms: _261  and  _264
REMARK  114  A    between atoms: _266  and  _268
REMARK  115  A    between atoms: _268  and  _269
REMARK  116  A    between atoms: _268  and  _271
REMARK  117  A    between atoms: _271  and  _272
REMARK  118  A    between atoms: _275  and  _277
REMARK  119  A    between atoms: _277  and  _278
REMARK  120  A    between atoms: _277  and  _280
REMARK  121  A    between atoms: _280  and  _281
REMARK  122  A    between atoms: _281  and  _282
REMARK  123  A    between atoms: _282  and  _283
REMARK  124  A    between atoms: _292  and  _294
REMARK  125  A    between atoms: _294  and  _295
REMARK  126  A    between atoms: _294  and  _297
REMARK  127  A    between atoms: _297  and  _298
REMARK  128  A    between atoms: _298  and  _299
REMARK  129  A    between atoms: _301  and  _303
REMARK  130  A    between atoms: _303  and  _304
REMARK  131  A    between atoms: _303  and  _306
REMARK  132  A    between atoms: _306  and  _307
REMARK  133  A    between atoms: _310  and  _312
REMARK  134  A    between atoms: _312  and  _313
REMARK  135  A    between atoms: _312  and  _315
REMARK  136  A    between atoms: _315  and  _316
REMARK  137  A    between atoms: _322  and  _324
REMARK  138  A    between atoms: _324  and  _325
REMARK  139  A    between atoms: _324  and  _327
REMARK  140  A    between atoms: _327  and  _328
REMARK  141  A    between atoms: _330  and  _332
REMARK  142  A    between atoms: _332  and  _333
REMARK  143  A    between atoms: _332  and  _335
REMARK  144  A    between atoms: _335  and  _336
REMARK  145  A    between atoms: _339  and  _341
REMARK  146  A    between atoms: _341  and  _342
REMARK  147  A    between atoms: _344  and  _346
REMARK  148  A    between atoms: _346  and  _347
REMARK  149  A    between atoms: _346  and  _349
REMARK  150  A    between atoms: _349  and  _350
REMARK  151  A    between atoms: _353  and  _355
REMARK  152  A    between atoms: _355  and  _356
REMARK  153  A    between atoms: _355  and  _358
REMARK  154  A    between atoms: _358  and  _359
REMARK  155  A    between atoms: _359  and  _360
REMARK  156  A    between atoms: _362  and  _364
REMARK  157  A    between atoms: _364  and  _365
REMARK  158  A    between atoms: _364  and  _367
REMARK  159  A    between atoms: _367  and  _368
REMARK  160  A    between atoms: _373  and  _375
REMARK  161  A    between atoms: _375  and  _376
REMARK  162  A    between atoms: _379  and  _381
REMARK  163  A    between atoms: _381  and  _382
REMARK  164  A    between atoms: _384  and  _386
REMARK  165  A    between atoms: _386  and  _387
REMARK  166  A    between atoms: _386  and  _389
REMARK  167  A    between atoms: _389  and  _390
REMARK  168  A    between atoms: _396  and  _398
REMARK  169  A    between atoms: _398  and  _399
REMARK  170  A    between atoms: _401  and  _403
REMARK  171  A    between atoms: _403  and  _404
REMARK  172  A    between atoms: _403  and  _406
REMARK  173  A    between atoms: _406  and  _407
REMARK  174  A    between atoms: _410  and  _412
REMARK  175  A    between atoms: _412  and  _413
REMARK  176  A    between atoms: _412  and  _415
REMARK  177  A    between atoms: _415  and  _416
REMARK  178  A    between atoms: _419  and  _421
REMARK  179  A    between atoms: _421  and  _422
REMARK  180  A    between atoms: _421  and  _424
REMARK  181  A    between atoms: _427  and  _429
REMARK  182  A    between atoms: _429  and  _430
REMARK  183  A    between atoms: _429  and  _432
REMARK  184  A    between atoms: _432  and  _433
REMARK  185  A    between atoms: _436  and  _438
REMARK  186  A    between atoms: _438  and  _439
REMARK  187  A    between atoms: _438  and  _441
REMARK  188  A    between atoms: _441  and  _442
REMARK  189  A    between atoms: _445  and  _447
REMARK  190  A    between atoms: _447  and  _448
REMARK  191  A    between atoms: _447  and  _450
REMARK  192  A    between atoms: _450  and  _451
REMARK  193  A    between atoms: _453  and  _455
REMARK  194  A    between atoms: _455  and  _456
REMARK  195  A    between atoms: _455  and  _458
REMARK  196  A    between atoms: _458  and  _459
REMARK  197  A    between atoms: _459  and  _460
REMARK  198  A    between atoms: _460  and  _461
REMARK  199  A    between atoms: _461  and  _462
REMARK  200  A    between atoms: _466  and  _468
REMARK  201  A    between atoms: _468  and  _469
REMARK  202  A    between atoms: _471  and  _473
REMARK  203  A    between atoms: _473  and  _474
REMARK  204  A    between atoms: _477  and  _479
REMARK  205  A    between atoms: _479  and  _480
REMARK  206  A    between atoms: _479  and  _482
REMARK  207  A    between atoms: _483  and  _484
REMARK  208  A    between atoms: _487  and  _489
REMARK  209  A    between atoms: _489  and  _490
REMARK  210  A    between atoms: _489  and  _492
REMARK  211  A    between atoms: _492  and  _493
REMARK  212  A    between atoms: _493  and  _494
REMARK  213  A    between atoms: _494  and  _495
REMARK  214  A    between atoms: _504  and  _506
REMARK  215  A    between atoms: _506  and  _507
REMARK  216  A    between atoms: _510  and  _512
REMARK  217  A    between atoms: _512  and  _513
REMARK  218  A    between atoms: _512  and  _515
REMARK  219  A    between atoms: _515  and  _516
REMARK  220  A    between atoms: _519  and  _521
REMARK  221  A    between atoms: _521  and  _522
REMARK  222  A    between atoms: _521  and  _524
REMARK  223  A    between atoms: _524  and  _525
REMARK  224  A    between atoms: _528  and  _530
REMARK  225  A    between atoms: _530  and  _531
REMARK  226  A    between atoms: _530  and  _533
REMARK  227  A    between atoms: _533  and  _534
REMARK  228  A    between atoms: _537  and  _539
REMARK  229  A    between atoms: _539  and  _540
REMARK  230  A    between atoms: _539  and  _542
REMARK  231  A    between atoms: _542  and  _543
REMARK  232  A    between atoms: _543  and  _544
REMARK  233  A    between atoms: _544  and  _545
REMARK  234  A    between atoms: _545  and  _546
REMARK  235  A    between atoms: _550  and  _552
REMARK  236  A    between atoms: _552  and  _553
REMARK  237  A    between atoms: _552  and  _555
REMARK  238  A    between atoms: _555  and  _556
REMARK  239  A    between atoms: _556  and  _557
REMARK  240  A    between atoms: _560  and  _561
REMARK  241  A    between atoms: _566  and  _568
REMARK  242  A    between atoms: _568  and  _569
REMARK  243  A    between atoms: _568  and  _571
REMARK  244  A    between atoms: _571  and  _572
REMARK  245  A    between atoms: _575  and  _577
REMARK  246  A    between atoms: _577  and  _578
REMARK  247  A    between atoms: _577  and  _580
REMARK  248  A    between atoms: _580  and  _581
REMARK  249  A    between atoms: _581  and  _582
REMARK  250  A    between atoms: _582  and  _583
REMARK  251  A    between atoms: _592  and  _594
REMARK  252  A    between atoms: _594  and  _595
REMARK  253  A    between atoms: _594  and  _597
REMARK  254  A    between atoms: _597  and  _598
REMARK  255  A    between atoms: _598  and  _599
REMARK  256  A    between atoms: _601  and  _603
REMARK  257  A    between atoms: _603  and  _604
REMARK  258  A    between atoms: _603  and  _606
REMARK  259  A    between atoms: _606  and  _607
REMARK                            x       y       z     vdW  Elec       q    Type
REMARK                         _______ _______ _______ _____ _____    ______ ____
ROOT
ATOM      1  O   HOH     1      51.568  19.063  80.833  0.00  0.00    +0.000 OA
ENDROOT
TORSDOF 0
REMARK  Name = ../refined-set-2016/1fcz/1fcz_pocket.pdb
REMARK  259 active torsions:
REMARK  status: ('A' for Active; 'I' for Inactive)
REMARK    1  A    between atoms: _1  and  _3
REMARK    2  A    between atoms: _3  and  _4
REMARK    3  A    between atoms: _3  and  _6
REMARK    4  A    between atoms: _6  and  _7
REMARK    5  A    between atoms: _10  and  _12
REMARK    6  A    between atoms: _12  and  _13
REMARK    7  A    between atoms: _12  and  _15
REMARK    8  A    between atoms: _15  and  _16
REMARK    9  A    between atoms: _23  and  _24
REMARK   10  A    between atoms: _29  and  _31
REMARK   11  A    between atoms: _31  and  _32
REMARK   12  A    between atoms: _31  and  _34
REMARK   13  A    between atoms: _34  and  _35
REMARK   14  A    between atoms: _38  and  _40
REMARK   15  A    between atoms: _40  and  _41
REMARK   16  A    between atoms: _40  and  _43
REMARK   17  A    between atoms: _43  and  _44
REMARK   18  A    between atoms: _54  and  _56
REMARK   19  A    between atoms: _56  and  _57
REMARK   20  A    between atoms: _56  and  _59
REMARK   21  A    between atoms: _59  and  _60
REMARK   22  A    between atoms: _60  and  _61
REMARK   23  A    between atoms: _61  and  _62
REMARK   24  A    between atoms: _62  and  _63
REMARK   25  A    between atoms: _67  and  _69
REMARK   26  A    between atoms: _69  and  _70
REMARK   27  A    between atoms: _69  and  _72
REMARK   28  A    between atoms: _72  and  _73
REMARK   29  A    between atoms: _79  and  _81
REMARK   30  A    between atoms: _81  and  _82
REMARK   31  A    between atoms: _81  and  _84
REMARK   32  A    between atoms: _84  and  _85
REMARK   33  A    between atoms: _87  and  _89
REMARK   34  A    between atoms: _89  and  _90
REMARK   35  A    between atoms: _89  and  _92
REMARK   36  A    between atoms: _92  and  _93
REMARK   37  A    between atoms: _93  and  _94
REMARK   38  A    between atoms: _97  and  _99
REMARK   39  A    between atoms: _99  and  _100
REMARK   40  A    between atoms: _99  and  _102
REMARK   41  A    between atoms: _102  and  _103
REMARK   42  A    between atoms: _106  and  _108
REMARK   43  A    between atoms: _108  and  _109
REMARK   44  A    between atoms: _112  and  _114
REMARK   45  A    between atoms: _114  and  _115
REMARK   46  A    between atoms: _114  and  _117
REMARK   47  A    between atoms: _117  and  _118
REMARK   48  A    between atoms: _121  and  _123
REMARK   49  A    between atoms: _123  and  _124
REMARK   50  A    between atoms: _123  and  _126
REMARK   51  A    between atoms: _126  and  _127
REMARK   52  A    between atoms: _127  and  _128
REMARK   53  A    between atoms: _128  and  _129
REMARK   54  A    between atoms: _129  and  _130
REMARK   55  A    between atoms: _134  and  _136
REMARK   56  A    between atoms: _136  and  _137
REMARK   57  A    between atoms: _136  and  _139
REMARK   58  A    between atoms: _141  and  _143
REMARK   59  A    between atoms: _143  and  _144
REMARK   60  A    between atoms: _143  and  _146
REMARK   61  A    between atoms: _146  and  _147
REMARK   62  A    between atoms: _150  and  _152
REMARK   63  A    between atoms: _152  and  _153
REMARK   64  A    between atoms: _152  and  _155
REMARK   65  A    between atoms: _155  and  _156
REMARK   66  A    between atoms: _156  and  _157
REMARK   67  A    between atoms: _157  and  _158
REMARK   68  A    between atoms: _158  and  _159
REMARK   69  A    between atoms: _163  and  _165
REMARK   70  A    between atoms: _165  and  _166
REMARK   71  A    between atoms: _165  and  _168
REMARK   72  A    between atoms: _168  and  _169
REMARK   73  A    between atoms: _172  and  _174
REMARK   74  A    between atoms: _174  and  _175
REMARK   75  A    between atoms: _174  and  _177
REMARK   76  A    between atoms: _179  and  _181
REMARK   77  A    between atoms: _181  and  _182
REMARK   78  A    between atoms: _181  and  _184
REMARK   79  A    between atoms: _184  and  _185
REMARK   80  A    between atoms: _188  and  _190
REMARK   81  A    between atoms: _190  and  _191
REMARK   82  A    between atoms: _190  and  _193
REMARK   83  A    between atoms: _193  and  _194
REMARK   84  A    between atoms: _197  and  _199
REMARK   85  A    between atoms: _199  and  _200
REMARK   86  A    between atoms: _199  and  _202
REMARK   87  A    between atoms: _202  and  _203
REMARK   88  A    between atoms: _206  and  _208
REMARK   89  A    between atoms: _208  and  _209
REMARK   90  A    between atoms: _208  and  _211
REMARK   91  A    between atoms: _211  and  _212
REMARK   92  A    between atoms: _215  and  _217
REMARK   93  A    between atoms: _217  and  _218
REMARK   94  A    between atoms: _217  and  _220
REMARK   95  A    between atoms: _220  and  _221
REMARK   96  A    between atoms: _221  and  _222
REMARK   97  A    between atoms: _224  and  _226
REMARK   98  A    between atoms: _226  and  _227
REMARK   99  A    between atoms: _226  and  _229
REMARK  100  A    between atoms: _229  and  _230
REMARK  101  A    between atoms: _233  and  _235
REMARK  102  A    between atoms: _235  and  _236
REMARK  103  A    between atoms: _235  and  _238
REMARK  104  A    between atoms: _238  and  _239
REMARK  105  A    between atoms: _239  and  _240
REMARK  106  A    between atoms: _240  and  _241
REMARK  107  A    between atoms: _250  and  _252
REMARK  108  A    between atoms: _252  and  _253
REMARK  109  A    between atoms: _252  and  _255
REMARK  110  A    between atoms: _255  and  _256
REMARK  111  A    between atoms: _259  and  _261
REMARK  112  A    between atoms: _261  and  _262
REMARK  113  A    between atoms: _261  and  _264
REMARK  114  A    between atoms: _266  and  _268
REMARK  115  A    between atoms: _268  and  _269
REMARK  116  A    between atoms: _268  and  _271
REMARK  117  A    between atoms: _271  and  _272
REMARK  118  A    between atoms: _275  and  _277
REMARK  119  A    between atoms: _277  and  _278
REMARK  120  A    between atoms: _277  and  _280
REMARK  121  A    between atoms: _280  and  _281
REMARK  122  A    between atoms: _281  and  _282
REMARK  123  A    between atoms: _282  and  _283
REMARK  124  A    between atoms: _292  and  _294
REMARK  125  A    between atoms: _294  and  _295
REMARK  126  A    between atoms: _294  and  _297
REMARK  127  A    between atoms: _297  and  _298
REMARK  128  A    between atoms: _298  and  _299
REMARK  129  A    between atoms: _301  and  _303
REMARK  130  A    between atoms: _303  and  _304
REMARK  131  A    between atoms: _303  and  _306
REMARK  132  A    between atoms: _306  and  _307
REMARK  133  A    between atoms: _310  and  _312
REMARK  134  A    between atoms: _312  and  _313
REMARK  135  A    between atoms: _312  and  _315
REMARK  136  A    between atoms: _315  and  _316
REMARK  137  A    between atoms: _322  and  _324
REMARK  138  A    between atoms: _324  and  _325
REMARK  139  A    between atoms: _324  and  _327
REMARK  140  A    between atoms: _327  and  _328
REMARK  141  A    between atoms: _330  and  _332
REMARK  142  A    between atoms: _332  and  _333
REMARK  143  A    between atoms: _332  and  _335
REMARK  144  A    between atoms: _335  and  _336
REMARK  145  A    between atoms: _339  and  _341
REMARK  146  A    between atoms: _341  and  _342
REMARK  147  A    between atoms: _344  and  _346
REMARK  148  A    between atoms: _346  and  _347
REMARK  149  A    between atoms: _346  and  _349
REMARK  150  A    between atoms: _349  and  _350
REMARK  151  A    between atoms: _353  and  _355
REMARK  152  A    between atoms: _355  and  _356
REMARK  153  A    between atoms: _355  and  _358
REMARK  154  A    between atoms: _358  and  _359
REMARK  155  A    between atoms: _359  and  _360
REMARK  156  A    between atoms: _362  and  _364
REMARK  157  A    between atoms: _364  and  _365
REMARK  158  A    between atoms: _364  and  _367
REMARK  159  A    between atoms: _367  and  _368
REMARK  160  A    between atoms: _373  and  _375
REMARK  161  A    between atoms: _375  and  _376
REMARK  162  A    between atoms: _379  and  _381
REMARK  163  A    between atoms: _381  and  _382
REMARK  164  A    between atoms: _384  and  _386
REMARK  165  A    between atoms: _386  and  _387
REMARK  166  A    between atoms: _386  and  _389
REMARK  167  A    between atoms: _389  and  _390
REMARK  168  A    between atoms: _396  and  _398
REMARK  169  A    between atoms: _398  and  _399
REMARK  170  A    between atoms: _401  and  _403
REMARK  171  A    between atoms: _403  and  _404
REMARK  172  A    between atoms: _403  and  _406
REMARK  173  A    between atoms: _406  and  _407
REMARK  174  A    between atoms: _410  and  _412
REMARK  175  A    between atoms: _412  and  _413
REMARK  176  A    between atoms: _412  and  _415
REMARK  177  A    between atoms: _415  and  _416
REMARK  178  A    between atoms: _419  and  _421
REMARK  179  A    between atoms: _421  and  _422
REMARK  180  A    between atoms: _421  and  _424
REMARK  181  A    between atoms: _427  and  _429
REMARK  182  A    between atoms: _429  and  _430
REMARK  183  A    between atoms: _429  and  _432
REMARK  184  A    between atoms: _432  and  _433
REMARK  185  A    between atoms: _436  and  _438
REMARK  186  A    between atoms: _438  and  _439
REMARK  187  A    between atoms: _438  and  _441
REMARK  188  A    between atoms: _441  and  _442
REMARK  189  A    between atoms: _445  and  _447
REMARK  190  A    between atoms: _447  and  _448
REMARK  191  A    between atoms: _447  and  _450
REMARK  192  A    between atoms: _450  and  _451
REMARK  193  A    between atoms: _453  and  _455
REMARK  194  A    between atoms: _455  and  _456
REMARK  195  A    between atoms: _455  and  _458
REMARK  196  A    between atoms: _458  and  _459
REMARK  197  A    between atoms: _459  and  _460
REMARK  198  A    between atoms: _460  and  _461
REMARK  199  A    between atoms: _461  and  _462
REMARK  200  A    between atoms: _466  and  _468
REMARK  201  A    between atoms: _468  and  _469
REMARK  202  A    between atoms: _471  and  _473
REMARK  203  A    between atoms: _473  and  _474
REMARK  204  A    between atoms: _477  and  _479
REMARK  205  A    between atoms: _479  and  _480
REMARK  206  A    between atoms: _479  and  _482
REMARK  207  A    between atoms: _483  and  _484
REMARK  208  A    between atoms: _487  and  _489
REMARK  209  A    between atoms: _489  and  _490
REMARK  210  A    between atoms: _489  and  _492
REMARK  211  A    between atoms: _492  and  _493
REMARK  212  A    between atoms: _493  and  _494
REMARK  213  A    between atoms: _494  and  _495
REMARK  214  A    between atoms: _504  and  _506
REMARK  215  A    between atoms: _506  and  _507
REMARK  216  A    between atoms: _510  and  _512
REMARK  217  A    between atoms: _512  and  _513
REMARK  218  A    between atoms: _512  and  _515
REMARK  219  A    between atoms: _515  and  _516
REMARK  220  A    between atoms: _519  and  _521
REMARK  221  A    between atoms: _521  and  _522
REMARK  222  A    between atoms: _521  and  _524
REMARK  223  A    between atoms: _524  and  _525
REMARK  224  A    between atoms: _528  and  _530
REMARK  225  A    between atoms: _530  and  _531
REMARK  226  A    between atoms: _530  and  _533
REMARK  227  A    between atoms: _533  and  _534
REMARK  228  A    between atoms: _537  and  _539
REMARK  229  A    between atoms: _539  and  _540
REMARK  230  A    between atoms: _539  and  _542
REMARK  231  A    between atoms: _542  and  _543
REMARK  232  A    between atoms: _543  and  _544
REMARK  233  A    between atoms: _544  and  _545
REMARK  234  A    between atoms: _545  and  _546
REMARK  235  A    between atoms: _550  and  _552
REMARK  236  A    between atoms: _552  and  _553
REMARK  237  A    between atoms: _552  and  _555
REMARK  238  A    between atoms: _555  and  _556
REMARK  239  A    between atoms: _556  and  _557
REMARK  240  A    between atoms: _560  and  _561
REMARK  241  A    between atoms: _566  and  _568
REMARK  242  A    between atoms: _568  and  _569
REMARK  243  A    between atoms: _568  and  _571
REMARK  244  A    between atoms: _571  and  _572
REMARK  245  A    between atoms: _575  and  _577
REMARK  246  A    between atoms: _577  and  _578
REMARK  247  A    between atoms: _577  and  _580
REMARK  248  A    between atoms: _580  and  _581
REMARK  249  A    between atoms: _581  and  _582
REMARK  250  A    between atoms: _582  and  _583
REMARK  251  A    between atoms: _592  and  _594
REMARK  252  A    between atoms: _594  and  _595
REMARK  253  A    between atoms: _594  and  _597
REMARK  254  A    between atoms: _597  and  _598
REMARK  255  A    between atoms: _598  and  _599
REMARK  256  A    between atoms: _601  and  _603
REMARK  257  A    between atoms: _603  and  _604
REMARK  258  A    between atoms: _603  and  _606
REMARK  259  A    between atoms: _606  and  _607
REMARK                            x       y       z     vdW  Elec       q    Type
REMARK                         _______ _______ _______ _____ _____    ______ ____
ROOT
ATOM      1  O   HOH     1      49.344  12.259  87.786  0.00  0.00    +0.000 OA
ENDROOT
TORSDOF 0
REMARK  Name = ../refined-set-2016/1fcz/1fcz_pocket.pdb
REMARK  259 active torsions:
REMARK  status: ('A' for Active; 'I' for Inactive)
REMARK    1  A    between atoms: _1  and  _3
REMARK    2  A    between atoms: _3  and  _4
REMARK    3  A    between atoms: _3  and  _6
REMARK    4  A    between atoms: _6  and  _7
REMARK    5  A    between atoms: _10  and  _12
REMARK    6  A    between atoms: _12  and  _13
REMARK    7  A    between atoms: _12  and  _15
REMARK    8  A    between atoms: _15  and  _16
REMARK    9  A    between atoms: _23  and  _24
REMARK   10  A    between atoms: _29  and  _31
REMARK   11  A    between atoms: _31  and  _32
REMARK   12  A    between atoms: _31  and  _34
REMARK   13  A    between atoms: _34  and  _35
REMARK   14  A    between atoms: _38  and  _40
REMARK   15  A    between atoms: _40  and  _41
REMARK   16  A    between atoms: _40  and  _43
REMARK   17  A    between atoms: _43  and  _44
REMARK   18  A    between atoms: _54  and  _56
REMARK   19  A    between atoms: _56  and  _57
REMARK   20  A    between atoms: _56  and  _59
REMARK   21  A    between atoms: _59  and  _60
REMARK   22  A    between atoms: _60  and  _61
REMARK   23  A    between atoms: _61  and  _62
REMARK   24  A    between atoms: _62  and  _63
REMARK   25  A    between atoms: _67  and  _69
REMARK   26  A    between atoms: _69  and  _70
REMARK   27  A    between atoms: _69  and  _72
REMARK   28  A    between atoms: _72  and  _73
REMARK   29  A    between atoms: _79  and  _81
REMARK   30  A    between atoms: _81  and  _82
REMARK   31  A    between atoms: _81  and  _84
REMARK   32  A    between atoms: _84  and  _85
REMARK   33  A    between atoms: _87  and  _89
REMARK   34  A    between atoms: _89  and  _90
REMARK   35  A    between atoms: _89  and  _92
REMARK   36  A    between atoms: _92  and  _93
REMARK   37  A    between atoms: _93  and  _94
REMARK   38  A    between atoms: _97  and  _99
REMARK   39  A    between atoms: _99  and  _100
REMARK   40  A    between atoms: _99  and  _102
REMARK   41  A    between atoms: _102  and  _103
REMARK   42  A    between atoms: _106  and  _108
REMARK   43  A    between atoms: _108  and  _109
REMARK   44  A    between atoms: _112  and  _114
REMARK   45  A    between atoms: _114  and  _115
REMARK   46  A    between atoms: _114  and  _117
REMARK   47  A    between atoms: _117  and  _118
REMARK   48  A    between atoms: _121  and  _123
REMARK   49  A    between atoms: _123  and  _124
REMARK   50  A    between atoms: _123  and  _126
REMARK   51  A    between atoms: _126  and  _127
REMARK   52  A    between atoms: _127  and  _128
REMARK   53  A    between atoms: _128  and  _129
REMARK   54  A    between atoms: _129  and  _130
REMARK   55  A    between atoms: _134  and  _136
REMARK   56  A    between atoms: _136  and  _137
REMARK   57  A    between atoms: _136  and  _139
REMARK   58  A    between atoms: _141  and  _143
REMARK   59  A    between atoms: _143  and  _144
REMARK   60  A    between atoms: _143  and  _146
REMARK   61  A    between atoms: _146  and  _147
REMARK   62  A    between atoms: _150  and  _152
REMARK   63  A    between atoms: _152  and  _153
REMARK   64  A    between atoms: _152  and  _155
REMARK   65  A    between atoms: _155  and  _156
REMARK   66  A    between atoms: _156  and  _157
REMARK   67  A    between atoms: _157  and  _158
REMARK   68  A    between atoms: _158  and  _159
REMARK   69  A    between atoms: _163  and  _165
REMARK   70  A    between atoms: _165  and  _166
REMARK   71  A    between atoms: _165  and  _168
REMARK   72  A    between atoms: _168  and  _169
REMARK   73  A    between atoms: _172  and  _174
REMARK   74  A    between atoms: _174  and  _175
REMARK   75  A    between atoms: _174  and  _177
REMARK   76  A    between atoms: _179  and  _181
REMARK   77  A    between atoms: _181  and  _182
REMARK   78  A    between atoms: _181  and  _184
REMARK   79  A    between atoms: _184  and  _185
REMARK   80  A    between atoms: _188  and  _190
REMARK   81  A    between atoms: _190  and  _191
REMARK   82  A    between atoms: _190  and  _193
REMARK   83  A    between atoms: _193  and  _194
REMARK   84  A    between atoms: _197  and  _199
REMARK   85  A    between atoms: _199  and  _200
REMARK   86  A    between atoms: _199  and  _202
REMARK   87  A    between atoms: _202  and  _203
REMARK   88  A    between atoms: _206  and  _208
REMARK   89  A    between atoms: _208  and  _209
REMARK   90  A    between atoms: _208  and  _211
REMARK   91  A    between atoms: _211  and  _212
REMARK   92  A    between atoms: _215  and  _217
REMARK   93  A    between atoms: _217  and  _218
REMARK   94  A    between atoms: _217  and  _220
REMARK   95  A    between atoms: _220  and  _221
REMARK   96  A    between atoms: _221  and  _222
REMARK   97  A    between atoms: _224  and  _226
REMARK   98  A    between atoms: _226  and  _227
REMARK   99  A    between atoms: _226  and  _229
REMARK  100  A    between atoms: _229  and  _230
REMARK  101  A    between atoms: _233  and  _235
REMARK  102  A    between atoms: _235  and  _236
REMARK  103  A    between atoms: _235  and  _238
REMARK  104  A    between atoms: _238  and  _239
REMARK  105  A    between atoms: _239  and  _240
REMARK  106  A    between atoms: _240  and  _241
REMARK  107  A    between atoms: _250  and  _252
REMARK  108  A    between atoms: _252  and  _253
REMARK  109  A    between atoms: _252  and  _255
REMARK  110  A    between atoms: _255  and  _256
REMARK  111  A    between atoms: _259  and  _261
REMARK  112  A    between atoms: _261  and  _262
REMARK  113  A    between atoms: _261  and  _264
REMARK  114  A    between atoms: _266  and  _268
REMARK  115  A    between atoms: _268  and  _269
REMARK  116  A    between atoms: _268  and  _271
REMARK  117  A    between atoms: _271  and  _272
REMARK  118  A    between atoms: _275  and  _277
REMARK  119  A    between atoms: _277  and  _278
REMARK  120  A    between atoms: _277  and  _280
REMARK  121  A    between atoms: _280  and  _281
REMARK  122  A    between atoms: _281  and  _282
REMARK  123  A    between atoms: _282  and  _283
REMARK  124  A    between atoms: _292  and  _294
REMARK  125  A    between atoms: _294  and  _295
REMARK  126  A    between atoms: _294  and  _297
REMARK  127  A    between atoms: _297  and  _298
REMARK  128  A    between atoms: _298  and  _299
REMARK  129  A    between atoms: _301  and  _303
REMARK  130  A    between atoms: _303  and  _304
REMARK  131  A    between atoms: _303  and  _306
REMARK  132  A    between atoms: _306  and  _307
REMARK  133  A    between atoms: _310  and  _312
REMARK  134  A    between atoms: _312  and  _313
REMARK  135  A    between atoms: _312  and  _315
REMARK  136  A    between atoms: _315  and  _316
REMARK  137  A    between atoms: _322  and  _324
REMARK  138  A    between atoms: _324  and  _325
REMARK  139  A    between atoms: _324  and  _327
REMARK  140  A    between atoms: _327  and  _328
REMARK  141  A    between atoms: _330  and  _332
REMARK  142  A    between atoms: _332  and  _333
REMARK  143  A    between atoms: _332  and  _335
REMARK  144  A    between atoms: _335  and  _336
REMARK  145  A    between atoms: _339  and  _341
REMARK  146  A    between atoms: _341  and  _342
REMARK  147  A    between atoms: _344  and  _346
REMARK  148  A    between atoms: _346  and  _347
REMARK  149  A    between atoms: _346  and  _349
REMARK  150  A    between atoms: _349  and  _350
REMARK  151  A    between atoms: _353  and  _355
REMARK  152  A    between atoms: _355  and  _356
REMARK  153  A    between atoms: _355  and  _358
REMARK  154  A    between atoms: _358  and  _359
REMARK  155  A    between atoms: _359  and  _360
REMARK  156  A    between atoms: _362  and  _364
REMARK  157  A    between atoms: _364  and  _365
REMARK  158  A    between atoms: _364  and  _367
REMARK  159  A    between atoms: _367  and  _368
REMARK  160  A    between atoms: _373  and  _375
REMARK  161  A    between atoms: _375  and  _376
REMARK  162  A    between atoms: _379  and  _381
REMARK  163  A    between atoms: _381  and  _382
REMARK  164  A    between atoms: _384  and  _386
REMARK  165  A    between atoms: _386  and  _387
REMARK  166  A    between atoms: _386  and  _389
REMARK  167  A    between atoms: _389  and  _390
REMARK  168  A    between atoms: _396  and  _398
REMARK  169  A    between atoms: _398  and  _399
REMARK  170  A    between atoms: _401  and  _403
REMARK  171  A    between atoms: _403  and  _404
REMARK  172  A    between atoms: _403  and  _406
REMARK  173  A    between atoms: _406  and  _407
REMARK  174  A    between atoms: _410  and  _412
REMARK  175  A    between atoms: _412  and  _413
REMARK  176  A    between atoms: _412  and  _415
REMARK  177  A    between atoms: _415  and  _416
REMARK  178  A    between atoms: _419  and  _421
REMARK  179  A    between atoms: _421  and  _422
REMARK  180  A    between atoms: _421  and  _424
REMARK  181  A    between atoms: _427  and  _429
REMARK  182  A    between atoms: _429  and  _430
REMARK  183  A    between atoms: _429  and  _432
REMARK  184  A    between atoms: _432  and  _433
REMARK  185  A    between atoms: _436  and  _438
REMARK  186  A    between atoms: _438  and  _439
REMARK  187  A    between atoms: _438  and  _441
REMARK  188  A    between atoms: _441  and  _442
REMARK  189  A    between atoms: _445  and  _447
REMARK  190  A    between atoms: _447  and  _448
REMARK  191  A    between atoms: _447  and  _450
REMARK  192  A    between atoms: _450  and  _451
REMARK  193  A    between atoms: _453  and  _455
REMARK  194  A    between atoms: _455  and  _456
REMARK  195  A    between atoms: _455  and  _458
REMARK  196  A    between atoms: _458  and  _459
REMARK  197  A    between atoms: _459  and  _460
REMARK  198  A    between atoms: _460  and  _461
REMARK  199  A    between atoms: _461  and  _462
REMARK  200  A    between atoms: _466  and  _468
REMARK  201  A    between atoms: _468  and  _469
REMARK  202  A    between atoms: _471  and  _473
REMARK  203  A    between atoms: _473  and  _474
REMARK  204  A    between atoms: _477  and  _479
REMARK  205  A    between atoms: _479  and  _480
REMARK  206  A    between atoms: _479  and  _482
REMARK  207  A    between atoms: _483  and  _484
REMARK  208  A    between atoms: _487  and  _489
REMARK  209  A    between atoms: _489  and  _490
REMARK  210  A    between atoms: _489  and  _492
REMARK  211  A    between atoms: _492  and  _493
REMARK  212  A    between atoms: _493  and  _494
REMARK  213  A    between atoms: _494  and  _495
REMARK  214  A    between atoms: _504  and  _506
REMARK  215  A    between atoms: _506  and  _507
REMARK  216  A    between atoms: _510  and  _512
REMARK  217  A    between atoms: _512  and  _513
REMARK  218  A    between atoms: _512  and  _515
REMARK  219  A    between atoms: _515  and  _516
REMARK  220  A    between atoms: _519  and  _521
REMARK  221  A    between atoms: _521  and  _522
REMARK  222  A    between atoms: _521  and  _524
REMARK  223  A    between atoms: _524  and  _525
REMARK  224  A    between atoms: _528  and  _530
REMARK  225  A    between atoms: _530  and  _531
REMARK  226  A    between atoms: _530  and  _533
REMARK  227  A    between atoms: _533  and  _534
REMARK  228  A    between atoms: _537  and  _539
REMARK  229  A    between atoms: _539  and  _540
REMARK  230  A    between atoms: _539  and  _542
REMARK  231  A    between atoms: _542  and  _543
REMARK  232  A    between atoms: _543  and  _544
REMARK  233  A    between atoms: _544  and  _545
REMARK  234  A    between atoms: _545  and  _546
REMARK  235  A    between atoms: _550  and  _552
REMARK  236  A    between atoms: _552  and  _553
REMARK  237  A    between atoms: _552  and  _555
REMARK  238  A    between atoms: _555  and  _556
REMARK  239  A    between atoms: _556  and  _557
REMARK  240  A    between atoms: _560  and  _561
REMARK  241  A    between atoms: _566  and  _568
REMARK  242  A    between atoms: _568  and  _569
REMARK  243  A    between atoms: _568  and  _571
REMARK  244  A    between atoms: _571  and  _572
REMARK  245  A    between atoms: _575  and  _577
REMARK  246  A    between atoms: _577  and  _578
REMARK  247  A    between atoms: _577  and  _580
REMARK  248  A    between atoms: _580  and  _581
REMARK  249  A    between atoms: _581  and  _582
REMARK  250  A    between atoms: _582  and  _583
REMARK  251  A    between atoms: _592  and  _594
REMARK  252  A    between atoms: _594  and  _595
REMARK  253  A    between atoms: _594  and  _597
REMARK  254  A    between atoms: _597  and  _598
REMARK  255  A    between atoms: _598  and  _599
REMARK  256  A    between atoms: _601  and  _603
REMARK  257  A    between atoms: _603  and  _604
REMARK  258  A    between atoms: _603  and  _606
REMARK  259  A    between atoms: _606  and  _607
REMARK                            x       y       z     vdW  Elec       q    Type
REMARK                         _______ _______ _______ _____ _____    ______ ____
ROOT
ATOM      1  O   HOH     1      48.995   8.920  86.969  0.00  0.00    +0.000 OA
ENDROOT
TORSDOF 0
REMARK  Name = ../refined-set-2016/1fcz/1fcz_pocket.pdb
REMARK  259 active torsions:
REMARK  status: ('A' for Active; 'I' for Inactive)
REMARK    1  A    between atoms: _1  and  _3
REMARK    2  A    between atoms: _3  and  _4
REMARK    3  A    between atoms: _3  and  _6
REMARK    4  A    between atoms: _6  and  _7
REMARK    5  A    between atoms: _10  and  _12
REMARK    6  A    between atoms: _12  and  _13
REMARK    7  A    between atoms: _12  and  _15
REMARK    8  A    between atoms: _15  and  _16
REMARK    9  A    between atoms: _23  and  _24
REMARK   10  A    between atoms: _29  and  _31
REMARK   11  A    between atoms: _31  and  _32
REMARK   12  A    between atoms: _31  and  _34
REMARK   13  A    between atoms: _34  and  _35
REMARK   14  A    between atoms: _38  and  _40
REMARK   15  A    between atoms: _40  and  _41
REMARK   16  A    between atoms: _40  and  _43
REMARK   17  A    between atoms: _43  and  _44
REMARK   18  A    between atoms: _54  and  _56
REMARK   19  A    between atoms: _56  and  _57
REMARK   20  A    between atoms: _56  and  _59
REMARK   21  A    between atoms: _59  and  _60
REMARK   22  A    between atoms: _60  and  _61
REMARK   23  A    between atoms: _61  and  _62
REMARK   24  A    between atoms: _62  and  _63
REMARK   25  A    between atoms: _67  and  _69
REMARK   26  A    between atoms: _69  and  _70
REMARK   27  A    between atoms: _69  and  _72
REMARK   28  A    between atoms: _72  and  _73
REMARK   29  A    between atoms: _79  and  _81
REMARK   30  A    between atoms: _81  and  _82
REMARK   31  A    between atoms: _81  and  _84
REMARK   32  A    between atoms: _84  and  _85
REMARK   33  A    between atoms: _87  and  _89
REMARK   34  A    between atoms: _89  and  _90
REMARK   35  A    between atoms: _89  and  _92
REMARK   36  A    between atoms: _92  and  _93
REMARK   37  A    between atoms: _93  and  _94
REMARK   38  A    between atoms: _97  and  _99
REMARK   39  A    between atoms: _99  and  _100
REMARK   40  A    between atoms: _99  and  _102
REMARK   41  A    between atoms: _102  and  _103
REMARK   42  A    between atoms: _106  and  _108
REMARK   43  A    between atoms: _108  and  _109
REMARK   44  A    between atoms: _112  and  _114
REMARK   45  A    between atoms: _114  and  _115
REMARK   46  A    between atoms: _114  and  _117
REMARK   47  A    between atoms: _117  and  _118
REMARK   48  A    between atoms: _121  and  _123
REMARK   49  A    between atoms: _123  and  _124
REMARK   50  A    between atoms: _123  and  _126
REMARK   51  A    between atoms: _126  and  _127
REMARK   52  A    between atoms: _127  and  _128
REMARK   53  A    between atoms: _128  and  _129
REMARK   54  A    between atoms: _129  and  _130
REMARK   55  A    between atoms: _134  and  _136
REMARK   56  A    between atoms: _136  and  _137
REMARK   57  A    between atoms: _136  and  _139
REMARK   58  A    between atoms: _141  and  _143
REMARK   59  A    between atoms: _143  and  _144
REMARK   60  A    between atoms: _143  and  _146
REMARK   61  A    between atoms: _146  and  _147
REMARK   62  A    between atoms: _150  and  _152
REMARK   63  A    between atoms: _152  and  _153
REMARK   64  A    between atoms: _152  and  _155
REMARK   65  A    between atoms: _155  and  _156
REMARK   66  A    between atoms: _156  and  _157
REMARK   67  A    between atoms: _157  and  _158
REMARK   68  A    between atoms: _158  and  _159
REMARK   69  A    between atoms: _163  and  _165
REMARK   70  A    between atoms: _165  and  _166
REMARK   71  A    between atoms: _165  and  _168
REMARK   72  A    between atoms: _168  and  _169
REMARK   73  A    between atoms: _172  and  _174
REMARK   74  A    between atoms: _174  and  _175
REMARK   75  A    between atoms: _174  and  _177
REMARK   76  A    between atoms: _179  and  _181
REMARK   77  A    between atoms: _181  and  _182
REMARK   78  A    between atoms: _181  and  _184
REMARK   79  A    between atoms: _184  and  _185
REMARK   80  A    between atoms: _188  and  _190
REMARK   81  A    between atoms: _190  and  _191
REMARK   82  A    between atoms: _190  and  _193
REMARK   83  A    between atoms: _193  and  _194
REMARK   84  A    between atoms: _197  and  _199
REMARK   85  A    between atoms: _199  and  _200
REMARK   86  A    between atoms: _199  and  _202
REMARK   87  A    between atoms: _202  and  _203
REMARK   88  A    between atoms: _206  and  _208
REMARK   89  A    between atoms: _208  and  _209
REMARK   90  A    between atoms: _208  and  _211
REMARK   91  A    between atoms: _211  and  _212
REMARK   92  A    between atoms: _215  and  _217
REMARK   93  A    between atoms: _217  and  _218
REMARK   94  A    between atoms: _217  and  _220
REMARK   95  A    between atoms: _220  and  _221
REMARK   96  A    between atoms: _221  and  _222
REMARK   97  A    between atoms: _224  and  _226
REMARK   98  A    between atoms: _226  and  _227
REMARK   99  A    between atoms: _226  and  _229
REMARK  100  A    between atoms: _229  and  _230
REMARK  101  A    between atoms: _233  and  _235
REMARK  102  A    between atoms: _235  and  _236
REMARK  103  A    between atoms: _235  and  _238
REMARK  104  A    between atoms: _238  and  _239
REMARK  105  A    between atoms: _239  and  _240
REMARK  106  A    between atoms: _240  and  _241
REMARK  107  A    between atoms: _250  and  _252
REMARK  108  A    between atoms: _252  and  _253
REMARK  109  A    between atoms: _252  and  _255
REMARK  110  A    between atoms: _255  and  _256
REMARK  111  A    between atoms: _259  and  _261
REMARK  112  A    between atoms: _261  and  _262
REMARK  113  A    between atoms: _261  and  _264
REMARK  114  A    between atoms: _266  and  _268
REMARK  115  A    between atoms: _268  and  _269
REMARK  116  A    between atoms: _268  and  _271
REMARK  117  A    between atoms: _271  and  _272
REMARK  118  A    between atoms: _275  and  _277
REMARK  119  A    between atoms: _277  and  _278
REMARK  120  A    between atoms: _277  and  _280
REMARK  121  A    between atoms: _280  and  _281
REMARK  122  A    between atoms: _281  and  _282
REMARK  123  A    between atoms: _282  and  _283
REMARK  124  A    between atoms: _292  and  _294
REMARK  125  A    between atoms: _294  and  _295
REMARK  126  A    between atoms: _294  and  _297
REMARK  127  A    between atoms: _297  and  _298
REMARK  128  A    between atoms: _298  and  _299
REMARK  129  A    between atoms: _301  and  _303
REMARK  130  A    between atoms: _303  and  _304
REMARK  131  A    between atoms: _303  and  _306
REMARK  132  A    between atoms: _306  and  _307
REMARK  133  A    between atoms: _310  and  _312
REMARK  134  A    between atoms: _312  and  _313
REMARK  135  A    between atoms: _312  and  _315
REMARK  136  A    between atoms: _315  and  _316
REMARK  137  A    between atoms: _322  and  _324
REMARK  138  A    between atoms: _324  and  _325
REMARK  139  A    between atoms: _324  and  _327
REMARK  140  A    between atoms: _327  and  _328
REMARK  141  A    between atoms: _330  and  _332
REMARK  142  A    between atoms: _332  and  _333
REMARK  143  A    between atoms: _332  and  _335
REMARK  144  A    between atoms: _335  and  _336
REMARK  145  A    between atoms: _339  and  _341
REMARK  146  A    between atoms: _341  and  _342
REMARK  147  A    between atoms: _344  and  _346
REMARK  148  A    between atoms: _346  and  _347
REMARK  149  A    between atoms: _346  and  _349
REMARK  150  A    between atoms: _349  and  _350
REMARK  151  A    between atoms: _353  and  _355
REMARK  152  A    between atoms: _355  and  _356
REMARK  153  A    between atoms: _355  and  _358
REMARK  154  A    between atoms: _358  and  _359
REMARK  155  A    between atoms: _359  and  _360
REMARK  156  A    between atoms: _362  and  _364
REMARK  157  A    between atoms: _364  and  _365
REMARK  158  A    between atoms: _364  and  _367
REMARK  159  A    between atoms: _367  and  _368
REMARK  160  A    between atoms: _373  and  _375
REMARK  161  A    between atoms: _375  and  _376
REMARK  162  A    between atoms: _379  and  _381
REMARK  163  A    between atoms: _381  and  _382
REMARK  164  A    between atoms: _384  and  _386
REMARK  165  A    between atoms: _386  and  _387
REMARK  166  A    between atoms: _386  and  _389
REMARK  167  A    between atoms: _389  and  _390
REMARK  168  A    between atoms: _396  and  _398
REMARK  169  A    between atoms: _398  and  _399
REMARK  170  A    between atoms: _401  and  _403
REMARK  171  A    between atoms: _403  and  _404
REMARK  172  A    between atoms: _403  and  _406
REMARK  173  A    between atoms: _406  and  _407
REMARK  174  A    between atoms: _410  and  _412
REMARK  175  A    between atoms: _412  and  _413
REMARK  176  A    between atoms: _412  and  _415
REMARK  177  A    between atoms: _415  and  _416
REMARK  178  A    between atoms: _419  and  _421
REMARK  179  A    between atoms: _421  and  _422
REMARK  180  A    between atoms: _421  and  _424
REMARK  181  A    between atoms: _427  and  _429
REMARK  182  A    between atoms: _429  and  _430
REMARK  183  A    between atoms: _429  and  _432
REMARK  184  A    between atoms: _432  and  _433
REMARK  185  A    between atoms: _436  and  _438
REMARK  186  A    between atoms: _438  and  _439
REMARK  187  A    between atoms: _438  and  _441
REMARK  188  A    between atoms: _441  and  _442
REMARK  189  A    between atoms: _445  and  _447
REMARK  190  A    between atoms: _447  and  _448
REMARK  191  A    between atoms: _447  and  _450
REMARK  192  A    between atoms: _450  and  _451
REMARK  193  A    between atoms: _453  and  _455
REMARK  194  A    between atoms: _455  and  _456
REMARK  195  A    between atoms: _455  and  _458
REMARK  196  A    between atoms: _458  and  _459
REMARK  197  A    between atoms: _459  and  _460
REMARK  198  A    between atoms: _460  and  _461
REMARK  199  A    between atoms: _461  and  _462
REMARK  200  A    between atoms: _466  and  _468
REMARK  201  A    between atoms: _468  and  _469
REMARK  202  A    between atoms: _471  and  _473
REMARK  203  A    between atoms: _473  and  _474
REMARK  204  A    between atoms: _477  and  _479
REMARK  205  A    between atoms: _479  and  _480
REMARK  206  A    between atoms: _479  and  _482
REMARK  207  A    between atoms: _483  and  _484
REMARK  208  A    between atoms: _487  and  _489
REMARK  209  A    between atoms: _489  and  _490
REMARK  210  A    between atoms: _489  and  _492
REMARK  211  A    between atoms: _492  and  _493
REMARK  212  A    between atoms: _493  and  _494
REMARK  213  A    between atoms: _494  and  _495
REMARK  214  A    between atoms: _504  and  _506
REMARK  215  A    between atoms: _506  and  _507
REMARK  216  A    between atoms: _510  and  _512
REMARK  217  A    between atoms: _512  and  _513
REMARK  218  A    between atoms: _512  and  _515
REMARK  219  A    between atoms: _515  and  _516
REMARK  220  A    between atoms: _519  and  _521
REMARK  221  A    between atoms: _521  and  _522
REMARK  222  A    between atoms: _521  and  _524
REMARK  223  A    between atoms: _524  and  _525
REMARK  224  A    between atoms: _528  and  _530
REMARK  225  A    between atoms: _530  and  _531
REMARK  226  A    between atoms: _530  and  _533
REMARK  227  A    between atoms: _533  and  _534
REMARK  228  A    between atoms: _537  and  _539
REMARK  229  A    between atoms: _539  and  _540
REMARK  230  A    between atoms: _539  and  _542
REMARK  231  A    between atoms: _542  and  _543
REMARK  232  A    between atoms: _543  and  _544
REMARK  233  A    between atoms: _544  and  _545
REMARK  234  A    between atoms: _545  and  _546
REMARK  235  A    between atoms: _550  and  _552
REMARK  236  A    between atoms: _552  and  _553
REMARK  237  A    between atoms: _552  and  _555
REMARK  238  A    between atoms: _555  and  _556
REMARK  239  A    between atoms: _556  and  _557
REMARK  240  A    between atoms: _560  and  _561
REMARK  241  A    between atoms: _566  and  _568
REMARK  242  A    between atoms: _568  and  _569
REMARK  243  A    between atoms: _568  and  _571
REMARK  244  A    between atoms: _571  and  _572
REMARK  245  A    between atoms: _575  and  _577
REMARK  246  A    between atoms: _577  and  _578
REMARK  247  A    between atoms: _577  and  _580
REMARK  248  A    between atoms: _580  and  _581
REMARK  249  A    between atoms: _581  and  _582
REMARK  250  A    between atoms: _582  and  _583
REMARK  251  A    between atoms: _592  and  _594
REMARK  252  A    between atoms: _594  and  _595
REMARK  253  A    between atoms: _594  and  _597
REMARK  254  A    between atoms: _597  and  _598
REMARK  255  A    between atoms: _598  and  _599
REMARK  256  A    between atoms: _601  and  _603
REMARK  257  A    between atoms: _603  and  _604
REMARK  258  A    between atoms: _603  and  _606
REMARK  259  A    between atoms: _606  and  _607
REMARK                            x       y       z     vdW  Elec       q    Type
REMARK                         _______ _______ _______ _____ _____    ______ ____
ROOT
ATOM      1  O   HOH     1      45.717   7.123  75.299  0.00  0.00    +0.000 OA
ENDROOT
TORSDOF 0
REMARK  Name = ../refined-set-2016/1fcz/1fcz_pocket.pdb
REMARK  259 active torsions:
REMARK  status: ('A' for Active; 'I' for Inactive)
REMARK    1  A    between atoms: _1  and  _3
REMARK    2  A    between atoms: _3  and  _4
REMARK    3  A    between atoms: _3  and  _6
REMARK    4  A    between atoms: _6  and  _7
REMARK    5  A    between atoms: _10  and  _12
REMARK    6  A    between atoms: _12  and  _13
REMARK    7  A    between atoms: _12  and  _15
REMARK    8  A    between atoms: _15  and  _16
REMARK    9  A    between atoms: _23  and  _24
REMARK   10  A    between atoms: _29  and  _31
REMARK   11  A    between atoms: _31  and  _32
REMARK   12  A    between atoms: _31  and  _34
REMARK   13  A    between atoms: _34  and  _35
REMARK   14  A    between atoms: _38  and  _40
REMARK   15  A    between atoms: _40  and  _41
REMARK   16  A    between atoms: _40  and  _43
REMARK   17  A    between atoms: _43  and  _44
REMARK   18  A    between atoms: _54  and  _56
REMARK   19  A    between atoms: _56  and  _57
REMARK   20  A    between atoms: _56  and  _59
REMARK   21  A    between atoms: _59  and  _60
REMARK   22  A    between atoms: _60  and  _61
REMARK   23  A    between atoms: _61  and  _62
REMARK   24  A    between atoms: _62  and  _63
REMARK   25  A    between atoms: _67  and  _69
REMARK   26  A    between atoms: _69  and  _70
REMARK   27  A    between atoms: _69  and  _72
REMARK   28  A    between atoms: _72  and  _73
REMARK   29  A    between atoms: _79  and  _81
REMARK   30  A    between atoms: _81  and  _82
REMARK   31  A    between atoms: _81  and  _84
REMARK   32  A    between atoms: _84  and  _85
REMARK   33  A    between atoms: _87  and  _89
REMARK   34  A    between atoms: _89  and  _90
REMARK   35  A    between atoms: _89  and  _92
REMARK   36  A    between atoms: _92  and  _93
REMARK   37  A    between atoms: _93  and  _94
REMARK   38  A    between atoms: _97  and  _99
REMARK   39  A    between atoms: _99  and  _100
REMARK   40  A    between atoms: _99  and  _102
REMARK   41  A    between atoms: _102  and  _103
REMARK   42  A    between atoms: _106  and  _108
REMARK   43  A    between atoms: _108  and  _109
REMARK   44  A    between atoms: _112  and  _114
REMARK   45  A    between atoms: _114  and  _115
REMARK   46  A    between atoms: _114  and  _117
REMARK   47  A    between atoms: _117  and  _118
REMARK   48  A    between atoms: _121  and  _123
REMARK   49  A    between atoms: _123  and  _124
REMARK   50  A    between atoms: _123  and  _126
REMARK   51  A    between atoms: _126  and  _127
REMARK   52  A    between atoms: _127  and  _128
REMARK   53  A    between atoms: _128  and  _129
REMARK   54  A    between atoms: _129  and  _130
REMARK   55  A    between atoms: _134  and  _136
REMARK   56  A    between atoms: _136  and  _137
REMARK   57  A    between atoms: _136  and  _139
REMARK   58  A    between atoms: _141  and  _143
REMARK   59  A    between atoms: _143  and  _144
REMARK   60  A    between atoms: _143  and  _146
REMARK   61  A    between atoms: _146  and  _147
REMARK   62  A    between atoms: _150  and  _152
REMARK   63  A    between atoms: _152  and  _153
REMARK   64  A    between atoms: _152  and  _155
REMARK   65  A    between atoms: _155  and  _156
REMARK   66  A    between atoms: _156  and  _157
REMARK   67  A    between atoms: _157  and  _158
REMARK   68  A    between atoms: _158  and  _159
REMARK   69  A    between atoms: _163  and  _165
REMARK   70  A    between atoms: _165  and  _166
REMARK   71  A    between atoms: _165  and  _168
REMARK   72  A    between atoms: _168  and  _169
REMARK   73  A    between atoms: _172  and  _174
REMARK   74  A    between atoms: _174  and  _175
REMARK   75  A    between atoms: _174  and  _177
REMARK   76  A    between atoms: _179  and  _181
REMARK   77  A    between atoms: _181  and  _182
REMARK   78  A    between atoms: _181  and  _184
REMARK   79  A    between atoms: _184  and  _185
REMARK   80  A    between atoms: _188  and  _190
REMARK   81  A    between atoms: _190  and  _191
REMARK   82  A    between atoms: _190  and  _193
REMARK   83  A    between atoms: _193  and  _194
REMARK   84  A    between atoms: _197  and  _199
REMARK   85  A    between atoms: _199  and  _200
REMARK   86  A    between atoms: _199  and  _202
REMARK   87  A    between atoms: _202  and  _203
REMARK   88  A    between atoms: _206  and  _208
REMARK   89  A    between atoms: _208  and  _209
REMARK   90  A    between atoms: _208  and  _211
REMARK   91  A    between atoms: _211  and  _212
REMARK   92  A    between atoms: _215  and  _217
REMARK   93  A    between atoms: _217  and  _218
REMARK   94  A    between atoms: _217  and  _220
REMARK   95  A    between atoms: _220  and  _221
REMARK   96  A    between atoms: _221  and  _222
REMARK   97  A    between atoms: _224  and  _226
REMARK   98  A    between atoms: _226  and  _227
REMARK   99  A    between atoms: _226  and  _229
REMARK  100  A    between atoms: _229  and  _230
REMARK  101  A    between atoms: _233  and  _235
REMARK  102  A    between atoms: _235  and  _236
REMARK  103  A    between atoms: _235  and  _238
REMARK  104  A    between atoms: _238  and  _239
REMARK  105  A    between atoms: _239  and  _240
REMARK  106  A    between atoms: _240  and  _241
REMARK  107  A    between atoms: _250  and  _252
REMARK  108  A    between atoms: _252  and  _253
REMARK  109  A    between atoms: _252  and  _255
REMARK  110  A    between atoms: _255  and  _256
REMARK  111  A    between atoms: _259  and  _261
REMARK  112  A    between atoms: _261  and  _262
REMARK  113  A    between atoms: _261  and  _264
REMARK  114  A    between atoms: _266  and  _268
REMARK  115  A    between atoms: _268  and  _269
REMARK  116  A    between atoms: _268  and  _271
REMARK  117  A    between atoms: _271  and  _272
REMARK  118  A    between atoms: _275  and  _277
REMARK  119  A    between atoms: _277  and  _278
REMARK  120  A    between atoms: _277  and  _280
REMARK  121  A    between atoms: _280  and  _281
REMARK  122  A    between atoms: _281  and  _282
REMARK  123  A    between atoms: _282  and  _283
REMARK  124  A    between atoms: _292  and  _294
REMARK  125  A    between atoms: _294  and  _295
REMARK  126  A    between atoms: _294  and  _297
REMARK  127  A    between atoms: _297  and  _298
REMARK  128  A    between atoms: _298  and  _299
REMARK  129  A    between atoms: _301  and  _303
REMARK  130  A    between atoms: _303  and  _304
REMARK  131  A    between atoms: _303  and  _306
REMARK  132  A    between atoms: _306  and  _307
REMARK  133  A    between atoms: _310  and  _312
REMARK  134  A    between atoms: _312  and  _313
REMARK  135  A    between atoms: _312  and  _315
REMARK  136  A    between atoms: _315  and  _316
REMARK  137  A    between atoms: _322  and  _324
REMARK  138  A    between atoms: _324  and  _325
REMARK  139  A    between atoms: _324  and  _327
REMARK  140  A    between atoms: _327  and  _328
REMARK  141  A    between atoms: _330  and  _332
REMARK  142  A    between atoms: _332  and  _333
REMARK  143  A    between atoms: _332  and  _335
REMARK  144  A    between atoms: _335  and  _336
REMARK  145  A    between atoms: _339  and  _341
REMARK  146  A    between atoms: _341  and  _342
REMARK  147  A    between atoms: _344  and  _346
REMARK  148  A    between atoms: _346  and  _347
REMARK  149  A    between atoms: _346  and  _349
REMARK  150  A    between atoms: _349  and  _350
REMARK  151  A    between atoms: _353  and  _355
REMARK  152  A    between atoms: _355  and  _356
REMARK  153  A    between atoms: _355  and  _358
REMARK  154  A    between atoms: _358  and  _359
REMARK  155  A    between atoms: _359  and  _360
REMARK  156  A    between atoms: _362  and  _364
REMARK  157  A    between atoms: _364  and  _365
REMARK  158  A    between atoms: _364  and  _367
REMARK  159  A    between atoms: _367  and  _368
REMARK  160  A    between atoms: _373  and  _375
REMARK  161  A    between atoms: _375  and  _376
REMARK  162  A    between atoms: _379  and  _381
REMARK  163  A    between atoms: _381  and  _382
REMARK  164  A    between atoms: _384  and  _386
REMARK  165  A    between atoms: _386  and  _387
REMARK  166  A    between atoms: _386  and  _389
REMARK  167  A    between atoms: _389  and  _390
REMARK  168  A    between atoms: _396  and  _398
REMARK  169  A    between atoms: _398  and  _399
REMARK  170  A    between atoms: _401  and  _403
REMARK  171  A    between atoms: _403  and  _404
REMARK  172  A    between atoms: _403  and  _406
REMARK  173  A    between atoms: _406  and  _407
REMARK  174  A    between atoms: _410  and  _412
REMARK  175  A    between atoms: _412  and  _413
REMARK  176  A    between atoms: _412  and  _415
REMARK  177  A    between atoms: _415  and  _416
REMARK  178  A    between atoms: _419  and  _421
REMARK  179  A    between atoms: _421  and  _422
REMARK  180  A    between atoms: _421  and  _424
REMARK  181  A    between atoms: _427  and  _429
REMARK  182  A    between atoms: _429  and  _430
REMARK  183  A    between atoms: _429  and  _432
REMARK  184  A    between atoms: _432  and  _433
REMARK  185  A    between atoms: _436  and  _438
REMARK  186  A    between atoms: _438  and  _439
REMARK  187  A    between atoms: _438  and  _441
REMARK  188  A    between atoms: _441  and  _442
REMARK  189  A    between atoms: _445  and  _447
REMARK  190  A    between atoms: _447  and  _448
REMARK  191  A    between atoms: _447  and  _450
REMARK  192  A    between atoms: _450  and  _451
REMARK  193  A    between atoms: _453  and  _455
REMARK  194  A    between atoms: _455  and  _456
REMARK  195  A    between atoms: _455  and  _458
REMARK  196  A    between atoms: _458  and  _459
REMARK  197  A    between atoms: _459  and  _460
REMARK  198  A    between atoms: _460  and  _461
REMARK  199  A    between atoms: _461  and  _462
REMARK  200  A    between atoms: _466  and  _468
REMARK  201  A    between atoms: _468  and  _469
REMARK  202  A    between atoms: _471  and  _473
REMARK  203  A    between atoms: _473  and  _474
REMARK  204  A    between atoms: _477  and  _479
REMARK  205  A    between atoms: _479  and  _480
REMARK  206  A    between atoms: _479  and  _482
REMARK  207  A    between atoms: _483  and  _484
REMARK  208  A    between atoms: _487  and  _489
REMARK  209  A    between atoms: _489  and  _490
REMARK  210  A    between atoms: _489  and  _492
REMARK  211  A    between atoms: _492  and  _493
REMARK  212  A    between atoms: _493  and  _494
REMARK  213  A    between atoms: _494  and  _495
REMARK  214  A    between atoms: _504  and  _506
REMARK  215  A    between atoms: _506  and  _507
REMARK  216  A    between atoms: _510  and  _512
REMARK  217  A    between atoms: _512  and  _513
REMARK  218  A    between atoms: _512  and  _515
REMARK  219  A    between atoms: _515  and  _516
REMARK  220  A    between atoms: _519  and  _521
REMARK  221  A    between atoms: _521  and  _522
REMARK  222  A    between atoms: _521  and  _524
REMARK  223  A    between atoms: _524  and  _525
REMARK  224  A    between atoms: _528  and  _530
REMARK  225  A    between atoms: _530  and  _531
REMARK  226  A    between atoms: _530  and  _533
REMARK  227  A    between atoms: _533  and  _534
REMARK  228  A    between atoms: _537  and  _539
REMARK  229  A    between atoms: _539  and  _540
REMARK  230  A    between atoms: _539  and  _542
REMARK  231  A    between atoms: _542  and  _543
REMARK  232  A    between atoms: _543  and  _544
REMARK  233  A    between atoms: _544  and  _545
REMARK  234  A    between atoms: _545  and  _546
REMARK  235  A    between atoms: _550  and  _552
REMARK  236  A    between atoms: _552  and  _553
REMARK  237  A    between atoms: _552  and  _555
REMARK  238  A    between atoms: _555  and  _556
REMARK  239  A    between atoms: _556  and  _557
REMARK  240  A    between atoms: _560  and  _561
REMARK  241  A    between atoms: _566  and  _568
REMARK  242  A    between atoms: _568  and  _569
REMARK  243  A    between atoms: _568  and  _571
REMARK  244  A    between atoms: _571  and  _572
REMARK  245  A    between atoms: _575  and  _577
REMARK  246  A    between atoms: _577  and  _578
REMARK  247  A    between atoms: _577  and  _580
REMARK  248  A    between atoms: _580  and  _581
REMARK  249  A    between atoms: _581  and  _582
REMARK  250  A    between atoms: _582  and  _583
REMARK  251  A    between atoms: _592  and  _594
REMARK  252  A    between atoms: _594  and  _595
REMARK  253  A    between atoms: _594  and  _597
REMARK  254  A    between atoms: _597  and  _598
REMARK  255  A    between atoms: _598  and  _599
REMARK  256  A    between atoms: _601  and  _603
REMARK  257  A    between atoms: _603  and  _604
REMARK  258  A    between atoms: _603  and  _606
REMARK  259  A    between atoms: _606  and  _607
REMARK                            x       y       z     vdW  Elec       q    Type
REMARK                         _______ _______ _______ _____ _____    ______ ____
ROOT
ATOM      1  O   HOH     1      50.868  10.794  86.916  0.00  0.00    +0.000 OA
ENDROOT
TORSDOF 0
