REMARK  Name = ../refined-set-2016/4nbk/4nbk_pocket.pdb
REMARK  118 active torsions:
REMARK  status: ('A' for Active; 'I' for Inactive)
REMARK    1  A    between atoms: _1  and  _3
REMARK    2  A    between atoms: _3  and  _4
REMARK    3  A    between atoms: _6  and  _8
REMARK    4  A    between atoms: _8  and  _9
REMARK    5  A    between atoms: _8  and  _11
REMARK    6  A    between atoms: _11  and  _12
REMARK    7  A    between atoms: _17  and  _19
REMARK    8  A    between atoms: _19  and  _20
REMARK    9  A    between atoms: _19  and  _22
REMARK   10  A    between atoms: _22  and  _23
REMARK   11  A    between atoms: _23  and  _24
REMARK   12  A    between atoms: _29  and  _31
REMARK   13  A    between atoms: _31  and  _32
REMARK   14  A    between atoms: _31  and  _34
REMARK   15  A    between atoms: _37  and  _39
REMARK   16  A    between atoms: _39  and  _40
REMARK   17  A    between atoms: _39  and  _42
REMARK   18  A    between atoms: _42  and  _43
REMARK   19  A    between atoms: _48  and  _49
REMARK   20  A    between atoms: _51  and  _53
REMARK   21  A    between atoms: _53  and  _54
REMARK   22  A    between atoms: _53  and  _56
REMARK   23  A    between atoms: _56  and  _57
REMARK   24  A    between atoms: _60  and  _62
REMARK   25  A    between atoms: _62  and  _63
REMARK   26  A    between atoms: _62  and  _65
REMARK   27  A    between atoms: _65  and  _66
REMARK   28  A    between atoms: _70  and  _71
REMARK   29  A    between atoms: _76  and  _78
REMARK   30  A    between atoms: _78  and  _79
REMARK   31  A    between atoms: _82  and  _84
REMARK   32  A    between atoms: _84  and  _85
REMARK   33  A    between atoms: _84  and  _87
REMARK   34  A    between atoms: _87  and  _88
REMARK   35  A    between atoms: _93  and  _94
REMARK   36  A    between atoms: _96  and  _98
REMARK   37  A    between atoms: _98  and  _99
REMARK   38  A    between atoms: _98  and  _101
REMARK   39  A    between atoms: _101  and  _102
REMARK   40  A    between atoms: _102  and  _103
REMARK   41  A    between atoms: _106  and  _108
REMARK   42  A    between atoms: _108  and  _109
REMARK   43  A    between atoms: _112  and  _114
REMARK   44  A    between atoms: _114  and  _115
REMARK   45  A    between atoms: _114  and  _117
REMARK   46  A    between atoms: _117  and  _118
REMARK   47  A    between atoms: _118  and  _119
REMARK   48  A    between atoms: _122  and  _124
REMARK   49  A    between atoms: _124  and  _125
REMARK   50  A    between atoms: _127  and  _129
REMARK   51  A    between atoms: _129  and  _130
REMARK   52  A    between atoms: _129  and  _132
REMARK   53  A    between atoms: _132  and  _133
REMARK   54  A    between atoms: _138  and  _140
REMARK   55  A    between atoms: _140  and  _141
REMARK   56  A    between atoms: _140  and  _143
REMARK   57  A    between atoms: _143  and  _144
REMARK   58  A    between atoms: _144  and  _145
REMARK   59  A    between atoms: _150  and  _152
REMARK   60  A    between atoms: _152  and  _153
REMARK   61  A    between atoms: _156  and  _158
REMARK   62  A    between atoms: _158  and  _159
REMARK   63  A    between atoms: _158  and  _161
REMARK   64  A    between atoms: _161  and  _162
REMARK   65  A    between atoms: _162  and  _163
REMARK   66  A    between atoms: _163  and  _164
REMARK   67  A    between atoms: _173  and  _175
REMARK   68  A    between atoms: _175  and  _176
REMARK   69  A    between atoms: _179  and  _181
REMARK   70  A    between atoms: _181  and  _182
REMARK   71  A    between atoms: _185  and  _187
REMARK   72  A    between atoms: _187  and  _188
REMARK   73  A    between atoms: _187  and  _190
REMARK   74  A    between atoms: _190  and  _191
REMARK   75  A    between atoms: _193  and  _195
REMARK   76  A    between atoms: _195  and  _196
REMARK   77  A    between atoms: _195  and  _198
REMARK   78  A    between atoms: _201  and  _203
REMARK   79  A    between atoms: _203  and  _204
REMARK   80  A    between atoms: _203  and  _206
REMARK   81  A    between atoms: _206  and  _207
REMARK   82  A    between atoms: _212  and  _213
REMARK   83  A    between atoms: _215  and  _217
REMARK   84  A    between atoms: _217  and  _218
REMARK   85  A    between atoms: _217  and  _220
REMARK   86  A    between atoms: _220  and  _221
REMARK   87  A    between atoms: _224  and  _226
REMARK   88  A    between atoms: _226  and  _227
REMARK   89  A    between atoms: _226  and  _229
REMARK   90  A    between atoms: _229  and  _230
REMARK   91  A    between atoms: _234  and  _235
REMARK   92  A    between atoms: _240  and  _242
REMARK   93  A    between atoms: _242  and  _243
REMARK   94  A    between atoms: _242  and  _245
REMARK   95  A    between atoms: _245  and  _246
REMARK   96  A    between atoms: _251  and  _252
REMARK   97  A    between atoms: _254  and  _256
REMARK   98  A    between atoms: _256  and  _257
REMARK   99  A    between atoms: _256  and  _259
REMARK  100  A    between atoms: _262  and  _264
REMARK  101  A    between atoms: _264  and  _265
REMARK  102  A    between atoms: _268  and  _270
REMARK  103  A    between atoms: _270  and  _271
REMARK  104  A    between atoms: _270  and  _273
REMARK  105  A    between atoms: _273  and  _274
REMARK  106  A    between atoms: _274  and  _275
REMARK  107  A    between atoms: _278  and  _280
REMARK  108  A    between atoms: _280  and  _281
REMARK  109  A    between atoms: _283  and  _285
REMARK  110  A    between atoms: _285  and  _286
REMARK  111  A    between atoms: _285  and  _288
REMARK  112  A    between atoms: _288  and  _289
REMARK  113  A    between atoms: _294  and  _295
REMARK  114  A    between atoms: _297  and  _299
REMARK  115  A    between atoms: _299  and  _300
REMARK  116  A    between atoms: _299  and  _302
REMARK  117  A    between atoms: _304  and  _306
REMARK  118  A    between atoms: _306  and  _307
REMARK                            x       y       z     vdW  Elec       q    Type
REMARK                         _______ _______ _______ _____ _____    ______ ____
ROOT
ATOM      1  CA  ASN A   2      24.031  21.774   5.276  0.00  0.00    +0.146 C 
ENDROOT
BRANCH   1   4
ATOM      2  C   GLY A   1      26.424  21.746   5.155  0.00  0.00    +0.240 C 
ATOM      3  O   GLY A   1      26.480  21.724   6.383  0.00  0.00    -0.274 OA
ATOM      4  N   ASN A   2      25.267  21.797   4.501  0.00  0.00    -0.298 N 
ATOM      5  H   ASN A   2      25.244  21.852   3.463  0.00  0.00    +0.150 HD
BRANCH   2   6
ATOM      6  CA  GLY A   1      27.692  21.709   4.327  0.00  0.00    +0.169 C 
BRANCH   6   7
ATOM      7  N   GLY A   1      28.501  20.547   4.666  0.00  0.00    -0.236 NA
ATOM      8  H   GLY A   1      29.460  20.687   5.044  0.00  0.00    +0.142 HD
ENDBRANCH   6   7
ENDBRANCH   2   6
ENDBRANCH   1   4
BRANCH   1   9
ATOM      9  C   ASN A   2      23.507  20.352   5.480  0.00  0.00    +0.227 C 
ATOM     10  O   ASN A   2      22.364  20.171   5.894  0.00  0.00    -0.286 OA
ENDBRANCH   1   9
BRANCH   1  11
ATOM     11  CB  ASN A   2      22.958  22.655   4.625  0.00  0.00    +0.112 C 
BRANCH  11  12
ATOM     12  CG  ASN A   2      22.372  22.047   3.377  0.00  0.00    +0.222 C 
ATOM     13  ND2 ASN A   2      21.086  22.309   3.143  0.00  0.00    -0.329 N 
ATOM     14 HD21 ASN A   2      20.545  22.897   3.809  0.00  0.00    +0.145 HD
ATOM     15 HD22 ASN A   2      20.623  21.926   2.294  0.00  0.00    +0.145 HD
ATOM     16  OD1 ASN A   2      23.057  21.359   2.623  0.00  0.00    -0.275 OA
ENDBRANCH  11  12
ENDBRANCH   1  11
TORSDOF 6
REMARK  Name = ../refined-set-2016/4nbk/4nbk_pocket.pdb
REMARK  118 active torsions:
REMARK  status: ('A' for Active; 'I' for Inactive)
REMARK    1  A    between atoms: _1  and  _3
REMARK    2  A    between atoms: _3  and  _4
REMARK    3  A    between atoms: _6  and  _8
REMARK    4  A    between atoms: _8  and  _9
REMARK    5  A    between atoms: _8  and  _11
REMARK    6  A    between atoms: _11  and  _12
REMARK    7  A    between atoms: _17  and  _19
REMARK    8  A    between atoms: _19  and  _20
REMARK    9  A    between atoms: _19  and  _22
REMARK   10  A    between atoms: _22  and  _23
REMARK   11  A    between atoms: _23  and  _24
REMARK   12  A    between atoms: _29  and  _31
REMARK   13  A    between atoms: _31  and  _32
REMARK   14  A    between atoms: _31  and  _34
REMARK   15  A    between atoms: _37  and  _39
REMARK   16  A    between atoms: _39  and  _40
REMARK   17  A    between atoms: _39  and  _42
REMARK   18  A    between atoms: _42  and  _43
REMARK   19  A    between atoms: _48  and  _49
REMARK   20  A    between atoms: _51  and  _53
REMARK   21  A    between atoms: _53  and  _54
REMARK   22  A    between atoms: _53  and  _56
REMARK   23  A    between atoms: _56  and  _57
REMARK   24  A    between atoms: _60  and  _62
REMARK   25  A    between atoms: _62  and  _63
REMARK   26  A    between atoms: _62  and  _65
REMARK   27  A    between atoms: _65  and  _66
REMARK   28  A    between atoms: _70  and  _71
REMARK   29  A    between atoms: _76  and  _78
REMARK   30  A    between atoms: _78  and  _79
REMARK   31  A    between atoms: _82  and  _84
REMARK   32  A    between atoms: _84  and  _85
REMARK   33  A    between atoms: _84  and  _87
REMARK   34  A    between atoms: _87  and  _88
REMARK   35  A    between atoms: _93  and  _94
REMARK   36  A    between atoms: _96  and  _98
REMARK   37  A    between atoms: _98  and  _99
REMARK   38  A    between atoms: _98  and  _101
REMARK   39  A    between atoms: _101  and  _102
REMARK   40  A    between atoms: _102  and  _103
REMARK   41  A    between atoms: _106  and  _108
REMARK   42  A    between atoms: _108  and  _109
REMARK   43  A    between atoms: _112  and  _114
REMARK   44  A    between atoms: _114  and  _115
REMARK   45  A    between atoms: _114  and  _117
REMARK   46  A    between atoms: _117  and  _118
REMARK   47  A    between atoms: _118  and  _119
REMARK   48  A    between atoms: _122  and  _124
REMARK   49  A    between atoms: _124  and  _125
REMARK   50  A    between atoms: _127  and  _129
REMARK   51  A    between atoms: _129  and  _130
REMARK   52  A    between atoms: _129  and  _132
REMARK   53  A    between atoms: _132  and  _133
REMARK   54  A    between atoms: _138  and  _140
REMARK   55  A    between atoms: _140  and  _141
REMARK   56  A    between atoms: _140  and  _143
REMARK   57  A    between atoms: _143  and  _144
REMARK   58  A    between atoms: _144  and  _145
REMARK   59  A    between atoms: _150  and  _152
REMARK   60  A    between atoms: _152  and  _153
REMARK   61  A    between atoms: _156  and  _158
REMARK   62  A    between atoms: _158  and  _159
REMARK   63  A    between atoms: _158  and  _161
REMARK   64  A    between atoms: _161  and  _162
REMARK   65  A    between atoms: _162  and  _163
REMARK   66  A    between atoms: _163  and  _164
REMARK   67  A    between atoms: _173  and  _175
REMARK   68  A    between atoms: _175  and  _176
REMARK   69  A    between atoms: _179  and  _181
REMARK   70  A    between atoms: _181  and  _182
REMARK   71  A    between atoms: _185  and  _187
REMARK   72  A    between atoms: _187  and  _188
REMARK   73  A    between atoms: _187  and  _190
REMARK   74  A    between atoms: _190  and  _191
REMARK   75  A    between atoms: _193  and  _195
REMARK   76  A    between atoms: _195  and  _196
REMARK   77  A    between atoms: _195  and  _198
REMARK   78  A    between atoms: _201  and  _203
REMARK   79  A    between atoms: _203  and  _204
REMARK   80  A    between atoms: _203  and  _206
REMARK   81  A    between atoms: _206  and  _207
REMARK   82  A    between atoms: _212  and  _213
REMARK   83  A    between atoms: _215  and  _217
REMARK   84  A    between atoms: _217  and  _218
REMARK   85  A    between atoms: _217  and  _220
REMARK   86  A    between atoms: _220  and  _221
REMARK   87  A    between atoms: _224  and  _226
REMARK   88  A    between atoms: _226  and  _227
REMARK   89  A    between atoms: _226  and  _229
REMARK   90  A    between atoms: _229  and  _230
REMARK   91  A    between atoms: _234  and  _235
REMARK   92  A    between atoms: _240  and  _242
REMARK   93  A    between atoms: _242  and  _243
REMARK   94  A    between atoms: _242  and  _245
REMARK   95  A    between atoms: _245  and  _246
REMARK   96  A    between atoms: _251  and  _252
REMARK   97  A    between atoms: _254  and  _256
REMARK   98  A    between atoms: _256  and  _257
REMARK   99  A    between atoms: _256  and  _259
REMARK  100  A    between atoms: _262  and  _264
REMARK  101  A    between atoms: _264  and  _265
REMARK  102  A    between atoms: _268  and  _270
REMARK  103  A    between atoms: _270  and  _271
REMARK  104  A    between atoms: _270  and  _273
REMARK  105  A    between atoms: _273  and  _274
REMARK  106  A    between atoms: _274  and  _275
REMARK  107  A    between atoms: _278  and  _280
REMARK  108  A    between atoms: _280  and  _281
REMARK  109  A    between atoms: _283  and  _285
REMARK  110  A    between atoms: _285  and  _286
REMARK  111  A    between atoms: _285  and  _288
REMARK  112  A    between atoms: _288  and  _289
REMARK  113  A    between atoms: _294  and  _295
REMARK  114  A    between atoms: _297  and  _299
REMARK  115  A    between atoms: _299  and  _300
REMARK  116  A    between atoms: _299  and  _302
REMARK  117  A    between atoms: _304  and  _306
REMARK  118  A    between atoms: _306  and  _307
REMARK                            x       y       z     vdW  Elec       q    Type
REMARK                         _______ _______ _______ _____ _____    ______ ____
ROOT
ATOM      1  CB  GLN A   1      16.893  23.582   6.123  0.00  0.00    +0.035 C 
ENDROOT
BRANCH   1   2
ATOM      2  CA  GLN A   1      16.802  22.542   7.246  0.00  0.00    +0.134 C 
BRANCH   2   3
ATOM      3  N   GLN A   1      18.001  21.697   7.302  0.00  0.00    -0.239 NA
ATOM      4  H   GLN A   1      18.731  21.795   6.568  0.00  0.00    +0.142 HD
ENDBRANCH   2   3
BRANCH   2   5
ATOM      5  C   GLN A   1      15.526  21.723   7.055  0.00  0.00    +0.224 C 
ATOM      6  O   GLN A   1      14.444  22.146   7.468  0.00  0.00    -0.287 OA
ENDBRANCH   2   5
ENDBRANCH   1   2
BRANCH   1   7
ATOM      7  CG  GLN A   1      17.935  24.681   6.332  0.00  0.00    +0.087 C 
BRANCH   7   8
ATOM      8  CD  GLN A   1      19.268  24.327   5.701  0.00  0.00    +0.219 C 
ATOM      9  OE1 GLN A   1      19.560  23.150   5.482  0.00  0.00    -0.275 OA
ATOM     10  NE2 GLN A   1      20.071  25.347   5.369  0.00  0.00    -0.329 N 
ATOM     11 HE21 GLN A   1      19.782  26.325   5.574  0.00  0.00    +0.145 HD
ATOM     12 HE22 GLN A   1      20.984  25.161   4.906  0.00  0.00    +0.145 HD
ENDBRANCH   7   8
ENDBRANCH   1   7
TORSDOF 5
REMARK  Name = ../refined-set-2016/4nbk/4nbk_pocket.pdb
REMARK  118 active torsions:
REMARK  status: ('A' for Active; 'I' for Inactive)
REMARK    1  A    between atoms: _1  and  _3
REMARK    2  A    between atoms: _3  and  _4
REMARK    3  A    between atoms: _6  and  _8
REMARK    4  A    between atoms: _8  and  _9
REMARK    5  A    between atoms: _8  and  _11
REMARK    6  A    between atoms: _11  and  _12
REMARK    7  A    between atoms: _17  and  _19
REMARK    8  A    between atoms: _19  and  _20
REMARK    9  A    between atoms: _19  and  _22
REMARK   10  A    between atoms: _22  and  _23
REMARK   11  A    between atoms: _23  and  _24
REMARK   12  A    between atoms: _29  and  _31
REMARK   13  A    between atoms: _31  and  _32
REMARK   14  A    between atoms: _31  and  _34
REMARK   15  A    between atoms: _37  and  _39
REMARK   16  A    between atoms: _39  and  _40
REMARK   17  A    between atoms: _39  and  _42
REMARK   18  A    between atoms: _42  and  _43
REMARK   19  A    between atoms: _48  and  _49
REMARK   20  A    between atoms: _51  and  _53
REMARK   21  A    between atoms: _53  and  _54
REMARK   22  A    between atoms: _53  and  _56
REMARK   23  A    between atoms: _56  and  _57
REMARK   24  A    between atoms: _60  and  _62
REMARK   25  A    between atoms: _62  and  _63
REMARK   26  A    between atoms: _62  and  _65
REMARK   27  A    between atoms: _65  and  _66
REMARK   28  A    between atoms: _70  and  _71
REMARK   29  A    between atoms: _76  and  _78
REMARK   30  A    between atoms: _78  and  _79
REMARK   31  A    between atoms: _82  and  _84
REMARK   32  A    between atoms: _84  and  _85
REMARK   33  A    between atoms: _84  and  _87
REMARK   34  A    between atoms: _87  and  _88
REMARK   35  A    between atoms: _93  and  _94
REMARK   36  A    between atoms: _96  and  _98
REMARK   37  A    between atoms: _98  and  _99
REMARK   38  A    between atoms: _98  and  _101
REMARK   39  A    between atoms: _101  and  _102
REMARK   40  A    between atoms: _102  and  _103
REMARK   41  A    between atoms: _106  and  _108
REMARK   42  A    between atoms: _108  and  _109
REMARK   43  A    between atoms: _112  and  _114
REMARK   44  A    between atoms: _114  and  _115
REMARK   45  A    between atoms: _114  and  _117
REMARK   46  A    between atoms: _117  and  _118
REMARK   47  A    between atoms: _118  and  _119
REMARK   48  A    between atoms: _122  and  _124
REMARK   49  A    between atoms: _124  and  _125
REMARK   50  A    between atoms: _127  and  _129
REMARK   51  A    between atoms: _129  and  _130
REMARK   52  A    between atoms: _129  and  _132
REMARK   53  A    between atoms: _132  and  _133
REMARK   54  A    between atoms: _138  and  _140
REMARK   55  A    between atoms: _140  and  _141
REMARK   56  A    between atoms: _140  and  _143
REMARK   57  A    between atoms: _143  and  _144
REMARK   58  A    between atoms: _144  and  _145
REMARK   59  A    between atoms: _150  and  _152
REMARK   60  A    between atoms: _152  and  _153
REMARK   61  A    between atoms: _156  and  _158
REMARK   62  A    between atoms: _158  and  _159
REMARK   63  A    between atoms: _158  and  _161
REMARK   64  A    between atoms: _161  and  _162
REMARK   65  A    between atoms: _162  and  _163
REMARK   66  A    between atoms: _163  and  _164
REMARK   67  A    between atoms: _173  and  _175
REMARK   68  A    between atoms: _175  and  _176
REMARK   69  A    between atoms: _179  and  _181
REMARK   70  A    between atoms: _181  and  _182
REMARK   71  A    between atoms: _185  and  _187
REMARK   72  A    between atoms: _187  and  _188
REMARK   73  A    between atoms: _187  and  _190
REMARK   74  A    between atoms: _190  and  _191
REMARK   75  A    between atoms: _193  and  _195
REMARK   76  A    between atoms: _195  and  _196
REMARK   77  A    between atoms: _195  and  _198
REMARK   78  A    between atoms: _201  and  _203
REMARK   79  A    between atoms: _203  and  _204
REMARK   80  A    between atoms: _203  and  _206
REMARK   81  A    between atoms: _206  and  _207
REMARK   82  A    between atoms: _212  and  _213
REMARK   83  A    between atoms: _215  and  _217
REMARK   84  A    between atoms: _217  and  _218
REMARK   85  A    between atoms: _217  and  _220
REMARK   86  A    between atoms: _220  and  _221
REMARK   87  A    between atoms: _224  and  _226
REMARK   88  A    between atoms: _226  and  _227
REMARK   89  A    between atoms: _226  and  _229
REMARK   90  A    between atoms: _229  and  _230
REMARK   91  A    between atoms: _234  and  _235
REMARK   92  A    between atoms: _240  and  _242
REMARK   93  A    between atoms: _242  and  _243
REMARK   94  A    between atoms: _242  and  _245
REMARK   95  A    between atoms: _245  and  _246
REMARK   96  A    between atoms: _251  and  _252
REMARK   97  A    between atoms: _254  and  _256
REMARK   98  A    between atoms: _256  and  _257
REMARK   99  A    between atoms: _256  and  _259
REMARK  100  A    between atoms: _262  and  _264
REMARK  101  A    between atoms: _264  and  _265
REMARK  102  A    between atoms: _268  and  _270
REMARK  103  A    between atoms: _270  and  _271
REMARK  104  A    between atoms: _270  and  _273
REMARK  105  A    between atoms: _273  and  _274
REMARK  106  A    between atoms: _274  and  _275
REMARK  107  A    between atoms: _278  and  _280
REMARK  108  A    between atoms: _280  and  _281
REMARK  109  A    between atoms: _283  and  _285
REMARK  110  A    between atoms: _285  and  _286
REMARK  111  A    between atoms: _285  and  _288
REMARK  112  A    between atoms: _288  and  _289
REMARK  113  A    between atoms: _294  and  _295
REMARK  114  A    between atoms: _297  and  _299
REMARK  115  A    between atoms: _299  and  _300
REMARK  116  A    between atoms: _299  and  _302
REMARK  117  A    between atoms: _304  and  _306
REMARK  118  A    between atoms: _306  and  _307
REMARK                            x       y       z     vdW  Elec       q    Type
REMARK                         _______ _______ _______ _____ _____    ______ ____
ROOT
ATOM      1  CA  THR A   3      26.537  26.269  11.961  0.00  0.00    +0.176 C 
ENDROOT
BRANCH   1   3
ATOM      2  C   TYR A   2      26.776  24.975   9.936  0.00  0.00    +0.241 C 
ATOM      3  N   THR A   3      27.158  26.015  10.664  0.00  0.00    -0.295 N 
ATOM      4  H   THR A   3      27.901  26.651  10.311  0.00  0.00    +0.150 HD
ATOM      5  O   TYR A   2      25.918  24.190  10.322  0.00  0.00    -0.273 OA
BRANCH   2   6
ATOM      6  CA  TYR A   2      27.447  24.795   8.575  0.00  0.00    +0.153 C 
BRANCH   6   9
ATOM      7  C   VAL A   1      28.558  22.718   9.182  0.00  0.00    +0.238 C 
ATOM      8  O   VAL A   1      29.050  23.204  10.201  0.00  0.00    -0.274 OA
ATOM      9  N   TYR A   2      27.802  23.406   8.333  0.00  0.00    -0.297 N 
ATOM     10  H   TYR A   2      27.455  22.938   7.472  0.00  0.00    +0.150 HD
BRANCH   7  11
ATOM     11  CA  VAL A   1      28.811  21.264   8.795  0.00  0.00    +0.145 C 
BRANCH  11  12
ATOM     12  CB  VAL A   1      28.103  20.328   9.797  0.00  0.00    +0.025 C 
ATOM     13  CG2 VAL A   1      26.630  20.718   9.948  0.00  0.00    +0.002 C 
ATOM     14  CG1 VAL A   1      28.214  18.889   9.315  0.00  0.00    +0.002 C 
ENDBRANCH  11  12
BRANCH  11  15
ATOM     15  N   VAL A   1      30.233  20.970   8.705  0.00  0.00    -0.238 NA
ATOM     16  H   VAL A   1      30.734  20.610   9.542  0.00  0.00    +0.142 HD
ENDBRANCH  11  15
ENDBRANCH   7  11
ENDBRANCH   6   9
BRANCH   6  17
ATOM     17  CB  TYR A   2      26.512  25.292   7.472  0.00  0.00    +0.055 C 
BRANCH  17  18
ATOM     18  CG  TYR A   2      27.097  25.271   6.076  0.00  0.00    -0.020 A 
ATOM     19  CD2 TYR A   2      28.454  25.490   5.863  0.00  0.00    -0.001 A 
ATOM     20  CE2 TYR A   2      28.989  25.493   4.577  0.00  0.00    +0.036 A 
ATOM     21  CZ  TYR A   2      28.165  25.260   3.494  0.00  0.00    +0.134 A 
ATOM     22  CE1 TYR A   2      26.815  25.034   3.679  0.00  0.00    +0.036 A 
ATOM     23  CD1 TYR A   2      26.289  25.032   4.971  0.00  0.00    -0.001 A 
BRANCH  21  24
ATOM     24  OH  TYR A   2      28.693  25.262   2.219  0.00  0.00    -0.506 OA
ATOM     25  HH  TYR A   2      28.536  24.380   1.797  0.00  0.00    +0.292 HD
ENDBRANCH  21  24
ENDBRANCH  17  18
ENDBRANCH   6  17
ENDBRANCH   2   6
ENDBRANCH   1   3
BRANCH   1  26
ATOM     26  C   THR A   3      25.223  27.012  11.734  0.00  0.00    +0.243 C 
ATOM     27  O   THR A   3      25.105  28.216  11.985  0.00  0.00    -0.273 OA
ATOM     28  N   LEU A   4      24.238  26.270  11.239  0.00  0.00    -0.297 N 
ATOM     29  H   LEU A   4      24.364  25.239  11.190  0.00  0.00    +0.150 HD
BRANCH  28  30
ATOM     30  CA  LEU A   4      22.990  26.847  10.763  0.00  0.00    +0.149 C 
BRANCH  30  31
ATOM     31  C   LEU A   4      22.080  27.264  11.912  0.00  0.00    +0.244 C 
ATOM     32  O   LEU A   4      22.024  26.589  12.948  0.00  0.00    -0.273 OA
ATOM     33  N   PRO A   5      21.338  28.355  11.712  0.00  0.00    -0.272 N 
ATOM     34  CA  PRO A   5      20.294  28.756  12.650  0.00  0.00    +0.152 C 
ATOM     35  CB  PRO A   5      20.129  30.248  12.357  0.00  0.00    +0.031 C 
ATOM     36  CG  PRO A   5      20.332  30.310  10.861  0.00  0.00    +0.024 C 
ATOM     37  CD  PRO A   5      21.373  29.242  10.529  0.00  0.00    +0.094 C 
BRANCH  34  38
ATOM     38  C   PRO A   5      19.021  27.981  12.324  0.00  0.00    +0.241 C 
ATOM     39  N   ALA A   6      17.902  28.370  12.926  0.00  0.00    -0.298 N 
ATOM     40  H   ALA A   6      17.949  29.129  13.635  0.00  0.00    +0.150 HD
ATOM     41  O   PRO A   5      19.072  27.046  11.521  0.00  0.00    -0.273 OA
BRANCH  39  42
ATOM     42  CA  ALA A   6      16.606  27.763  12.622  0.00  0.00    +0.137 C 
ATOM     43  CB  ALA A   6      16.434  26.454  13.365  0.00  0.00    +0.030 C 
BRANCH  42  44
ATOM     44  C   ALA A   6      15.505  28.760  12.980  0.00  0.00    +0.227 C 
ATOM     45  O   ALA A   6      15.643  29.954  12.715  0.00  0.00    -0.286 OA
ENDBRANCH  42  44
ENDBRANCH  39  42
ENDBRANCH  34  38
ENDBRANCH  30  31
BRANCH  30  46
ATOM     46  CB  LEU A   4      22.245  25.842   9.881  0.00  0.00    +0.029 C 
BRANCH  46  47
ATOM     47  CG  LEU A   4      22.897  25.335   8.596  0.00  0.00    +0.002 C 
ATOM     48  CD2 LEU A   4      22.181  24.069   8.121  0.00  0.00    +0.000 C 
ATOM     49  CD1 LEU A   4      22.835  26.398   7.536  0.00  0.00    +0.000 C 
ENDBRANCH  46  47
ENDBRANCH  30  46
ENDBRANCH  28  30
ENDBRANCH   1  26
BRANCH   1  50
ATOM     50  CB  THR A   3      27.470  27.065  12.874  0.00  0.00    +0.137 C 
ATOM     51  CG2 THR A   3      28.718  26.261  13.140  0.00  0.00    +0.034 C 
BRANCH  50  52
ATOM     52  OG1 THR A   3      27.824  28.299  12.233  0.00  0.00    -0.382 OA
ATOM     53  HG1 THR A   3      27.004  28.825  12.057  0.00  0.00    +0.210 HD
ENDBRANCH  50  52
ENDBRANCH   1  50
TORSDOF 19
REMARK  Name = ../refined-set-2016/4nbk/4nbk_pocket.pdb
REMARK  118 active torsions:
REMARK  status: ('A' for Active; 'I' for Inactive)
REMARK    1  A    between atoms: _1  and  _3
REMARK    2  A    between atoms: _3  and  _4
REMARK    3  A    between atoms: _6  and  _8
REMARK    4  A    between atoms: _8  and  _9
REMARK    5  A    between atoms: _8  and  _11
REMARK    6  A    between atoms: _11  and  _12
REMARK    7  A    between atoms: _17  and  _19
REMARK    8  A    between atoms: _19  and  _20
REMARK    9  A    between atoms: _19  and  _22
REMARK   10  A    between atoms: _22  and  _23
REMARK   11  A    between atoms: _23  and  _24
REMARK   12  A    between atoms: _29  and  _31
REMARK   13  A    between atoms: _31  and  _32
REMARK   14  A    between atoms: _31  and  _34
REMARK   15  A    between atoms: _37  and  _39
REMARK   16  A    between atoms: _39  and  _40
REMARK   17  A    between atoms: _39  and  _42
REMARK   18  A    between atoms: _42  and  _43
REMARK   19  A    between atoms: _48  and  _49
REMARK   20  A    between atoms: _51  and  _53
REMARK   21  A    between atoms: _53  and  _54
REMARK   22  A    between atoms: _53  and  _56
REMARK   23  A    between atoms: _56  and  _57
REMARK   24  A    between atoms: _60  and  _62
REMARK   25  A    between atoms: _62  and  _63
REMARK   26  A    between atoms: _62  and  _65
REMARK   27  A    between atoms: _65  and  _66
REMARK   28  A    between atoms: _70  and  _71
REMARK   29  A    between atoms: _76  and  _78
REMARK   30  A    between atoms: _78  and  _79
REMARK   31  A    between atoms: _82  and  _84
REMARK   32  A    between atoms: _84  and  _85
REMARK   33  A    between atoms: _84  and  _87
REMARK   34  A    between atoms: _87  and  _88
REMARK   35  A    between atoms: _93  and  _94
REMARK   36  A    between atoms: _96  and  _98
REMARK   37  A    between atoms: _98  and  _99
REMARK   38  A    between atoms: _98  and  _101
REMARK   39  A    between atoms: _101  and  _102
REMARK   40  A    between atoms: _102  and  _103
REMARK   41  A    between atoms: _106  and  _108
REMARK   42  A    between atoms: _108  and  _109
REMARK   43  A    between atoms: _112  and  _114
REMARK   44  A    between atoms: _114  and  _115
REMARK   45  A    between atoms: _114  and  _117
REMARK   46  A    between atoms: _117  and  _118
REMARK   47  A    between atoms: _118  and  _119
REMARK   48  A    between atoms: _122  and  _124
REMARK   49  A    between atoms: _124  and  _125
REMARK   50  A    between atoms: _127  and  _129
REMARK   51  A    between atoms: _129  and  _130
REMARK   52  A    between atoms: _129  and  _132
REMARK   53  A    between atoms: _132  and  _133
REMARK   54  A    between atoms: _138  and  _140
REMARK   55  A    between atoms: _140  and  _141
REMARK   56  A    between atoms: _140  and  _143
REMARK   57  A    between atoms: _143  and  _144
REMARK   58  A    between atoms: _144  and  _145
REMARK   59  A    between atoms: _150  and  _152
REMARK   60  A    between atoms: _152  and  _153
REMARK   61  A    between atoms: _156  and  _158
REMARK   62  A    between atoms: _158  and  _159
REMARK   63  A    between atoms: _158  and  _161
REMARK   64  A    between atoms: _161  and  _162
REMARK   65  A    between atoms: _162  and  _163
REMARK   66  A    between atoms: _163  and  _164
REMARK   67  A    between atoms: _173  and  _175
REMARK   68  A    between atoms: _175  and  _176
REMARK   69  A    between atoms: _179  and  _181
REMARK   70  A    between atoms: _181  and  _182
REMARK   71  A    between atoms: _185  and  _187
REMARK   72  A    between atoms: _187  and  _188
REMARK   73  A    between atoms: _187  and  _190
REMARK   74  A    between atoms: _190  and  _191
REMARK   75  A    between atoms: _193  and  _195
REMARK   76  A    between atoms: _195  and  _196
REMARK   77  A    between atoms: _195  and  _198
REMARK   78  A    between atoms: _201  and  _203
REMARK   79  A    between atoms: _203  and  _204
REMARK   80  A    between atoms: _203  and  _206
REMARK   81  A    between atoms: _206  and  _207
REMARK   82  A    between atoms: _212  and  _213
REMARK   83  A    between atoms: _215  and  _217
REMARK   84  A    between atoms: _217  and  _218
REMARK   85  A    between atoms: _217  and  _220
REMARK   86  A    between atoms: _220  and  _221
REMARK   87  A    between atoms: _224  and  _226
REMARK   88  A    between atoms: _226  and  _227
REMARK   89  A    between atoms: _226  and  _229
REMARK   90  A    between atoms: _229  and  _230
REMARK   91  A    between atoms: _234  and  _235
REMARK   92  A    between atoms: _240  and  _242
REMARK   93  A    between atoms: _242  and  _243
REMARK   94  A    between atoms: _242  and  _245
REMARK   95  A    between atoms: _245  and  _246
REMARK   96  A    between atoms: _251  and  _252
REMARK   97  A    between atoms: _254  and  _256
REMARK   98  A    between atoms: _256  and  _257
REMARK   99  A    between atoms: _256  and  _259
REMARK  100  A    between atoms: _262  and  _264
REMARK  101  A    between atoms: _264  and  _265
REMARK  102  A    between atoms: _268  and  _270
REMARK  103  A    between atoms: _270  and  _271
REMARK  104  A    between atoms: _270  and  _273
REMARK  105  A    between atoms: _273  and  _274
REMARK  106  A    between atoms: _274  and  _275
REMARK  107  A    between atoms: _278  and  _280
REMARK  108  A    between atoms: _280  and  _281
REMARK  109  A    between atoms: _283  and  _285
REMARK  110  A    between atoms: _285  and  _286
REMARK  111  A    between atoms: _285  and  _288
REMARK  112  A    between atoms: _288  and  _289
REMARK  113  A    between atoms: _294  and  _295
REMARK  114  A    between atoms: _297  and  _299
REMARK  115  A    between atoms: _299  and  _300
REMARK  116  A    between atoms: _299  and  _302
REMARK  117  A    between atoms: _304  and  _306
REMARK  118  A    between atoms: _306  and  _307
REMARK                            x       y       z     vdW  Elec       q    Type
REMARK                         _______ _______ _______ _____ _____    ______ ____
ROOT
ATOM      1  CG  TYR A   1      26.534  23.534  15.069  0.00  0.00    -0.020 A 
ATOM      2  CD2 TYR A   1      25.753  24.662  15.291  0.00  0.00    -0.001 A 
ATOM      3  CE2 TYR A   1      24.591  24.882  14.564  0.00  0.00    +0.036 A 
ATOM      4  CZ  TYR A   1      24.199  23.962  13.610  0.00  0.00    +0.134 A 
ATOM      5  CE1 TYR A   1      24.959  22.835  13.368  0.00  0.00    +0.036 A 
ATOM      6  CD1 TYR A   1      26.123  22.629  14.091  0.00  0.00    -0.001 A 
ENDROOT
BRANCH   4   7
ATOM      7  OH  TYR A   1      23.049  24.176  12.896  0.00  0.00    -0.506 OA
ATOM      8  HH  TYR A   1      23.126  25.027  12.397  0.00  0.00    +0.292 HD
ENDBRANCH   4   7
BRANCH   1   9
ATOM      9  CB  TYR A   1      27.792  23.283  15.878  0.00  0.00    +0.051 C 
BRANCH   9  10
ATOM     10  CA  TYR A   1      27.532  22.374  17.087  0.00  0.00    +0.137 C 
BRANCH  10  11
ATOM     11  N   TYR A   1      26.587  23.011  18.006  0.00  0.00    -0.239 NA
ATOM     12  H   TYR A   1      26.835  23.916  18.455  0.00  0.00    +0.142 HD
ENDBRANCH  10  11
BRANCH  10  13
ATOM     13  C   TYR A   1      28.844  22.029  17.771  0.00  0.00    +0.224 C 
ATOM     14  O   TYR A   1      29.394  22.835  18.524  0.00  0.00    -0.287 OA
ENDBRANCH  10  13
ENDBRANCH   9  10
ENDBRANCH   1   9
TORSDOF 5
REMARK  Name = ../refined-set-2016/4nbk/4nbk_pocket.pdb
REMARK  118 active torsions:
REMARK  status: ('A' for Active; 'I' for Inactive)
REMARK    1  A    between atoms: _1  and  _3
REMARK    2  A    between atoms: _3  and  _4
REMARK    3  A    between atoms: _6  and  _8
REMARK    4  A    between atoms: _8  and  _9
REMARK    5  A    between atoms: _8  and  _11
REMARK    6  A    between atoms: _11  and  _12
REMARK    7  A    between atoms: _17  and  _19
REMARK    8  A    between atoms: _19  and  _20
REMARK    9  A    between atoms: _19  and  _22
REMARK   10  A    between atoms: _22  and  _23
REMARK   11  A    between atoms: _23  and  _24
REMARK   12  A    between atoms: _29  and  _31
REMARK   13  A    between atoms: _31  and  _32
REMARK   14  A    between atoms: _31  and  _34
REMARK   15  A    between atoms: _37  and  _39
REMARK   16  A    between atoms: _39  and  _40
REMARK   17  A    between atoms: _39  and  _42
REMARK   18  A    between atoms: _42  and  _43
REMARK   19  A    between atoms: _48  and  _49
REMARK   20  A    between atoms: _51  and  _53
REMARK   21  A    between atoms: _53  and  _54
REMARK   22  A    between atoms: _53  and  _56
REMARK   23  A    between atoms: _56  and  _57
REMARK   24  A    between atoms: _60  and  _62
REMARK   25  A    between atoms: _62  and  _63
REMARK   26  A    between atoms: _62  and  _65
REMARK   27  A    between atoms: _65  and  _66
REMARK   28  A    between atoms: _70  and  _71
REMARK   29  A    between atoms: _76  and  _78
REMARK   30  A    between atoms: _78  and  _79
REMARK   31  A    between atoms: _82  and  _84
REMARK   32  A    between atoms: _84  and  _85
REMARK   33  A    between atoms: _84  and  _87
REMARK   34  A    between atoms: _87  and  _88
REMARK   35  A    between atoms: _93  and  _94
REMARK   36  A    between atoms: _96  and  _98
REMARK   37  A    between atoms: _98  and  _99
REMARK   38  A    between atoms: _98  and  _101
REMARK   39  A    between atoms: _101  and  _102
REMARK   40  A    between atoms: _102  and  _103
REMARK   41  A    between atoms: _106  and  _108
REMARK   42  A    between atoms: _108  and  _109
REMARK   43  A    between atoms: _112  and  _114
REMARK   44  A    between atoms: _114  and  _115
REMARK   45  A    between atoms: _114  and  _117
REMARK   46  A    between atoms: _117  and  _118
REMARK   47  A    between atoms: _118  and  _119
REMARK   48  A    between atoms: _122  and  _124
REMARK   49  A    between atoms: _124  and  _125
REMARK   50  A    between atoms: _127  and  _129
REMARK   51  A    between atoms: _129  and  _130
REMARK   52  A    between atoms: _129  and  _132
REMARK   53  A    between atoms: _132  and  _133
REMARK   54  A    between atoms: _138  and  _140
REMARK   55  A    between atoms: _140  and  _141
REMARK   56  A    between atoms: _140  and  _143
REMARK   57  A    between atoms: _143  and  _144
REMARK   58  A    between atoms: _144  and  _145
REMARK   59  A    between atoms: _150  and  _152
REMARK   60  A    between atoms: _152  and  _153
REMARK   61  A    between atoms: _156  and  _158
REMARK   62  A    between atoms: _158  and  _159
REMARK   63  A    between atoms: _158  and  _161
REMARK   64  A    between atoms: _161  and  _162
REMARK   65  A    between atoms: _162  and  _163
REMARK   66  A    between atoms: _163  and  _164
REMARK   67  A    between atoms: _173  and  _175
REMARK   68  A    between atoms: _175  and  _176
REMARK   69  A    between atoms: _179  and  _181
REMARK   70  A    between atoms: _181  and  _182
REMARK   71  A    between atoms: _185  and  _187
REMARK   72  A    between atoms: _187  and  _188
REMARK   73  A    between atoms: _187  and  _190
REMARK   74  A    between atoms: _190  and  _191
REMARK   75  A    between atoms: _193  and  _195
REMARK   76  A    between atoms: _195  and  _196
REMARK   77  A    between atoms: _195  and  _198
REMARK   78  A    between atoms: _201  and  _203
REMARK   79  A    between atoms: _203  and  _204
REMARK   80  A    between atoms: _203  and  _206
REMARK   81  A    between atoms: _206  and  _207
REMARK   82  A    between atoms: _212  and  _213
REMARK   83  A    between atoms: _215  and  _217
REMARK   84  A    between atoms: _217  and  _218
REMARK   85  A    between atoms: _217  and  _220
REMARK   86  A    between atoms: _220  and  _221
REMARK   87  A    between atoms: _224  and  _226
REMARK   88  A    between atoms: _226  and  _227
REMARK   89  A    between atoms: _226  and  _229
REMARK   90  A    between atoms: _229  and  _230
REMARK   91  A    between atoms: _234  and  _235
REMARK   92  A    between atoms: _240  and  _242
REMARK   93  A    between atoms: _242  and  _243
REMARK   94  A    between atoms: _242  and  _245
REMARK   95  A    between atoms: _245  and  _246
REMARK   96  A    between atoms: _251  and  _252
REMARK   97  A    between atoms: _254  and  _256
REMARK   98  A    between atoms: _256  and  _257
REMARK   99  A    between atoms: _256  and  _259
REMARK  100  A    between atoms: _262  and  _264
REMARK  101  A    between atoms: _264  and  _265
REMARK  102  A    between atoms: _268  and  _270
REMARK  103  A    between atoms: _270  and  _271
REMARK  104  A    between atoms: _270  and  _273
REMARK  105  A    between atoms: _273  and  _274
REMARK  106  A    between atoms: _274  and  _275
REMARK  107  A    between atoms: _278  and  _280
REMARK  108  A    between atoms: _280  and  _281
REMARK  109  A    between atoms: _283  and  _285
REMARK  110  A    between atoms: _285  and  _286
REMARK  111  A    between atoms: _285  and  _288
REMARK  112  A    between atoms: _288  and  _289
REMARK  113  A    between atoms: _294  and  _295
REMARK  114  A    between atoms: _297  and  _299
REMARK  115  A    between atoms: _299  and  _300
REMARK  116  A    between atoms: _299  and  _302
REMARK  117  A    between atoms: _304  and  _306
REMARK  118  A    between atoms: _306  and  _307
REMARK                            x       y       z     vdW  Elec       q    Type
REMARK                         _______ _______ _______ _____ _____    ______ ____
ROOT
ATOM      1  CA  GLU A   1      34.386  26.575  10.558  0.00  0.00    +0.134 C 
ENDROOT
BRANCH   1   2
ATOM      2  N   GLU A   1      33.565  26.487  11.774  0.00  0.00    -0.239 NA
ATOM      3  H   GLU A   1      32.660  26.998  11.803  0.00  0.00    +0.142 HD
ENDBRANCH   1   2
BRANCH   1   4
ATOM      4  C   GLU A   1      35.844  26.889  10.875  0.00  0.00    +0.224 C 
ATOM      5  O   GLU A   1      36.127  27.790  11.661  0.00  0.00    -0.287 OA
ENDBRANCH   1   4
BRANCH   1   6
ATOM      6  CB  GLU A   1      33.840  27.656   9.608  0.00  0.00    +0.037 C 
BRANCH   6   7
ATOM      7  CG  GLU A   1      34.700  27.864   8.360  0.00  0.00    +0.116 C 
BRANCH   7   8
ATOM      8  CD  GLU A   1      34.207  29.002   7.461  0.00  0.00    +0.365 C 
ATOM      9  OE2 GLU A   1      33.378  29.829   7.909  0.00  0.00    -0.246 OA
ATOM     10  OE1 GLU A   1      34.683  29.086   6.309  0.00  0.00    -0.246 OA
ENDBRANCH   7   8
ENDBRANCH   6   7
ENDBRANCH   1   6
TORSDOF 5
REMARK  Name = ../refined-set-2016/4nbk/4nbk_pocket.pdb
REMARK  118 active torsions:
REMARK  status: ('A' for Active; 'I' for Inactive)
REMARK    1  A    between atoms: _1  and  _3
REMARK    2  A    between atoms: _3  and  _4
REMARK    3  A    between atoms: _6  and  _8
REMARK    4  A    between atoms: _8  and  _9
REMARK    5  A    between atoms: _8  and  _11
REMARK    6  A    between atoms: _11  and  _12
REMARK    7  A    between atoms: _17  and  _19
REMARK    8  A    between atoms: _19  and  _20
REMARK    9  A    between atoms: _19  and  _22
REMARK   10  A    between atoms: _22  and  _23
REMARK   11  A    between atoms: _23  and  _24
REMARK   12  A    between atoms: _29  and  _31
REMARK   13  A    between atoms: _31  and  _32
REMARK   14  A    between atoms: _31  and  _34
REMARK   15  A    between atoms: _37  and  _39
REMARK   16  A    between atoms: _39  and  _40
REMARK   17  A    between atoms: _39  and  _42
REMARK   18  A    between atoms: _42  and  _43
REMARK   19  A    between atoms: _48  and  _49
REMARK   20  A    between atoms: _51  and  _53
REMARK   21  A    between atoms: _53  and  _54
REMARK   22  A    between atoms: _53  and  _56
REMARK   23  A    between atoms: _56  and  _57
REMARK   24  A    between atoms: _60  and  _62
REMARK   25  A    between atoms: _62  and  _63
REMARK   26  A    between atoms: _62  and  _65
REMARK   27  A    between atoms: _65  and  _66
REMARK   28  A    between atoms: _70  and  _71
REMARK   29  A    between atoms: _76  and  _78
REMARK   30  A    between atoms: _78  and  _79
REMARK   31  A    between atoms: _82  and  _84
REMARK   32  A    between atoms: _84  and  _85
REMARK   33  A    between atoms: _84  and  _87
REMARK   34  A    between atoms: _87  and  _88
REMARK   35  A    between atoms: _93  and  _94
REMARK   36  A    between atoms: _96  and  _98
REMARK   37  A    between atoms: _98  and  _99
REMARK   38  A    between atoms: _98  and  _101
REMARK   39  A    between atoms: _101  and  _102
REMARK   40  A    between atoms: _102  and  _103
REMARK   41  A    between atoms: _106  and  _108
REMARK   42  A    between atoms: _108  and  _109
REMARK   43  A    between atoms: _112  and  _114
REMARK   44  A    between atoms: _114  and  _115
REMARK   45  A    between atoms: _114  and  _117
REMARK   46  A    between atoms: _117  and  _118
REMARK   47  A    between atoms: _118  and  _119
REMARK   48  A    between atoms: _122  and  _124
REMARK   49  A    between atoms: _124  and  _125
REMARK   50  A    between atoms: _127  and  _129
REMARK   51  A    between atoms: _129  and  _130
REMARK   52  A    between atoms: _129  and  _132
REMARK   53  A    between atoms: _132  and  _133
REMARK   54  A    between atoms: _138  and  _140
REMARK   55  A    between atoms: _140  and  _141
REMARK   56  A    between atoms: _140  and  _143
REMARK   57  A    between atoms: _143  and  _144
REMARK   58  A    between atoms: _144  and  _145
REMARK   59  A    between atoms: _150  and  _152
REMARK   60  A    between atoms: _152  and  _153
REMARK   61  A    between atoms: _156  and  _158
REMARK   62  A    between atoms: _158  and  _159
REMARK   63  A    between atoms: _158  and  _161
REMARK   64  A    between atoms: _161  and  _162
REMARK   65  A    between atoms: _162  and  _163
REMARK   66  A    between atoms: _163  and  _164
REMARK   67  A    between atoms: _173  and  _175
REMARK   68  A    between atoms: _175  and  _176
REMARK   69  A    between atoms: _179  and  _181
REMARK   70  A    between atoms: _181  and  _182
REMARK   71  A    between atoms: _185  and  _187
REMARK   72  A    between atoms: _187  and  _188
REMARK   73  A    between atoms: _187  and  _190
REMARK   74  A    between atoms: _190  and  _191
REMARK   75  A    between atoms: _193  and  _195
REMARK   76  A    between atoms: _195  and  _196
REMARK   77  A    between atoms: _195  and  _198
REMARK   78  A    between atoms: _201  and  _203
REMARK   79  A    between atoms: _203  and  _204
REMARK   80  A    between atoms: _203  and  _206
REMARK   81  A    between atoms: _206  and  _207
REMARK   82  A    between atoms: _212  and  _213
REMARK   83  A    between atoms: _215  and  _217
REMARK   84  A    between atoms: _217  and  _218
REMARK   85  A    between atoms: _217  and  _220
REMARK   86  A    between atoms: _220  and  _221
REMARK   87  A    between atoms: _224  and  _226
REMARK   88  A    between atoms: _226  and  _227
REMARK   89  A    between atoms: _226  and  _229
REMARK   90  A    between atoms: _229  and  _230
REMARK   91  A    between atoms: _234  and  _235
REMARK   92  A    between atoms: _240  and  _242
REMARK   93  A    between atoms: _242  and  _243
REMARK   94  A    between atoms: _242  and  _245
REMARK   95  A    between atoms: _245  and  _246
REMARK   96  A    between atoms: _251  and  _252
REMARK   97  A    between atoms: _254  and  _256
REMARK   98  A    between atoms: _256  and  _257
REMARK   99  A    between atoms: _256  and  _259
REMARK  100  A    between atoms: _262  and  _264
REMARK  101  A    between atoms: _264  and  _265
REMARK  102  A    between atoms: _268  and  _270
REMARK  103  A    between atoms: _270  and  _271
REMARK  104  A    between atoms: _270  and  _273
REMARK  105  A    between atoms: _273  and  _274
REMARK  106  A    between atoms: _274  and  _275
REMARK  107  A    between atoms: _278  and  _280
REMARK  108  A    between atoms: _280  and  _281
REMARK  109  A    between atoms: _283  and  _285
REMARK  110  A    between atoms: _285  and  _286
REMARK  111  A    between atoms: _285  and  _288
REMARK  112  A    between atoms: _288  and  _289
REMARK  113  A    between atoms: _294  and  _295
REMARK  114  A    between atoms: _297  and  _299
REMARK  115  A    between atoms: _299  and  _300
REMARK  116  A    between atoms: _299  and  _302
REMARK  117  A    between atoms: _304  and  _306
REMARK  118  A    between atoms: _306  and  _307
REMARK                            x       y       z     vdW  Elec       q    Type
REMARK                         _______ _______ _______ _____ _____    ______ ____
ROOT
ATOM      1  CA  ALA A   1      23.442  29.415  17.506  0.00  0.00    +0.133 C 
ATOM      2  CB  ALA A   1      23.256  29.200  16.015  0.00  0.00    +0.027 C 
ENDROOT
BRANCH   1   3
ATOM      3  N   ALA A   1      24.202  28.333  18.102  0.00  0.00    -0.239 NA
ATOM      4  H   ALA A   1      23.929  27.351  17.895  0.00  0.00    +0.142 HD
ENDBRANCH   1   3
BRANCH   1   5
ATOM      5  C   ALA A   1      22.107  29.457  18.222  0.00  0.00    +0.224 C 
ATOM      6  O   ALA A   1      21.319  28.517  18.125  0.00  0.00    -0.287 OA
ENDBRANCH   1   5
TORSDOF 2
REMARK  Name = ../refined-set-2016/4nbk/4nbk_pocket.pdb
REMARK  118 active torsions:
REMARK  status: ('A' for Active; 'I' for Inactive)
REMARK    1  A    between atoms: _1  and  _3
REMARK    2  A    between atoms: _3  and  _4
REMARK    3  A    between atoms: _6  and  _8
REMARK    4  A    between atoms: _8  and  _9
REMARK    5  A    between atoms: _8  and  _11
REMARK    6  A    between atoms: _11  and  _12
REMARK    7  A    between atoms: _17  and  _19
REMARK    8  A    between atoms: _19  and  _20
REMARK    9  A    between atoms: _19  and  _22
REMARK   10  A    between atoms: _22  and  _23
REMARK   11  A    between atoms: _23  and  _24
REMARK   12  A    between atoms: _29  and  _31
REMARK   13  A    between atoms: _31  and  _32
REMARK   14  A    between atoms: _31  and  _34
REMARK   15  A    between atoms: _37  and  _39
REMARK   16  A    between atoms: _39  and  _40
REMARK   17  A    between atoms: _39  and  _42
REMARK   18  A    between atoms: _42  and  _43
REMARK   19  A    between atoms: _48  and  _49
REMARK   20  A    between atoms: _51  and  _53
REMARK   21  A    between atoms: _53  and  _54
REMARK   22  A    between atoms: _53  and  _56
REMARK   23  A    between atoms: _56  and  _57
REMARK   24  A    between atoms: _60  and  _62
REMARK   25  A    between atoms: _62  and  _63
REMARK   26  A    between atoms: _62  and  _65
REMARK   27  A    between atoms: _65  and  _66
REMARK   28  A    between atoms: _70  and  _71
REMARK   29  A    between atoms: _76  and  _78
REMARK   30  A    between atoms: _78  and  _79
REMARK   31  A    between atoms: _82  and  _84
REMARK   32  A    between atoms: _84  and  _85
REMARK   33  A    between atoms: _84  and  _87
REMARK   34  A    between atoms: _87  and  _88
REMARK   35  A    between atoms: _93  and  _94
REMARK   36  A    between atoms: _96  and  _98
REMARK   37  A    between atoms: _98  and  _99
REMARK   38  A    between atoms: _98  and  _101
REMARK   39  A    between atoms: _101  and  _102
REMARK   40  A    between atoms: _102  and  _103
REMARK   41  A    between atoms: _106  and  _108
REMARK   42  A    between atoms: _108  and  _109
REMARK   43  A    between atoms: _112  and  _114
REMARK   44  A    between atoms: _114  and  _115
REMARK   45  A    between atoms: _114  and  _117
REMARK   46  A    between atoms: _117  and  _118
REMARK   47  A    between atoms: _118  and  _119
REMARK   48  A    between atoms: _122  and  _124
REMARK   49  A    between atoms: _124  and  _125
REMARK   50  A    between atoms: _127  and  _129
REMARK   51  A    between atoms: _129  and  _130
REMARK   52  A    between atoms: _129  and  _132
REMARK   53  A    between atoms: _132  and  _133
REMARK   54  A    between atoms: _138  and  _140
REMARK   55  A    between atoms: _140  and  _141
REMARK   56  A    between atoms: _140  and  _143
REMARK   57  A    between atoms: _143  and  _144
REMARK   58  A    between atoms: _144  and  _145
REMARK   59  A    between atoms: _150  and  _152
REMARK   60  A    between atoms: _152  and  _153
REMARK   61  A    between atoms: _156  and  _158
REMARK   62  A    between atoms: _158  and  _159
REMARK   63  A    between atoms: _158  and  _161
REMARK   64  A    between atoms: _161  and  _162
REMARK   65  A    between atoms: _162  and  _163
REMARK   66  A    between atoms: _163  and  _164
REMARK   67  A    between atoms: _173  and  _175
REMARK   68  A    between atoms: _175  and  _176
REMARK   69  A    between atoms: _179  and  _181
REMARK   70  A    between atoms: _181  and  _182
REMARK   71  A    between atoms: _185  and  _187
REMARK   72  A    between atoms: _187  and  _188
REMARK   73  A    between atoms: _187  and  _190
REMARK   74  A    between atoms: _190  and  _191
REMARK   75  A    between atoms: _193  and  _195
REMARK   76  A    between atoms: _195  and  _196
REMARK   77  A    between atoms: _195  and  _198
REMARK   78  A    between atoms: _201  and  _203
REMARK   79  A    between atoms: _203  and  _204
REMARK   80  A    between atoms: _203  and  _206
REMARK   81  A    between atoms: _206  and  _207
REMARK   82  A    between atoms: _212  and  _213
REMARK   83  A    between atoms: _215  and  _217
REMARK   84  A    between atoms: _217  and  _218
REMARK   85  A    between atoms: _217  and  _220
REMARK   86  A    between atoms: _220  and  _221
REMARK   87  A    between atoms: _224  and  _226
REMARK   88  A    between atoms: _226  and  _227
REMARK   89  A    between atoms: _226  and  _229
REMARK   90  A    between atoms: _229  and  _230
REMARK   91  A    between atoms: _234  and  _235
REMARK   92  A    between atoms: _240  and  _242
REMARK   93  A    between atoms: _242  and  _243
REMARK   94  A    between atoms: _242  and  _245
REMARK   95  A    between atoms: _245  and  _246
REMARK   96  A    between atoms: _251  and  _252
REMARK   97  A    between atoms: _254  and  _256
REMARK   98  A    between atoms: _256  and  _257
REMARK   99  A    between atoms: _256  and  _259
REMARK  100  A    between atoms: _262  and  _264
REMARK  101  A    between atoms: _264  and  _265
REMARK  102  A    between atoms: _268  and  _270
REMARK  103  A    between atoms: _270  and  _271
REMARK  104  A    between atoms: _270  and  _273
REMARK  105  A    between atoms: _273  and  _274
REMARK  106  A    between atoms: _274  and  _275
REMARK  107  A    between atoms: _278  and  _280
REMARK  108  A    between atoms: _280  and  _281
REMARK  109  A    between atoms: _283  and  _285
REMARK  110  A    between atoms: _285  and  _286
REMARK  111  A    between atoms: _285  and  _288
REMARK  112  A    between atoms: _288  and  _289
REMARK  113  A    between atoms: _294  and  _295
REMARK  114  A    between atoms: _297  and  _299
REMARK  115  A    between atoms: _299  and  _300
REMARK  116  A    between atoms: _299  and  _302
REMARK  117  A    between atoms: _304  and  _306
REMARK  118  A    between atoms: _306  and  _307
REMARK                            x       y       z     vdW  Elec       q    Type
REMARK                         _______ _______ _______ _____ _____    ______ ____
ROOT
ATOM      1  CA  GLY A   2      26.141  34.818   1.759  0.00  0.00    +0.176 C 
ENDROOT
BRANCH   1   3
ATOM      2  C   GLU A   1      25.823  37.081   0.936  0.00  0.00    +0.238 C 
ATOM      3  N   GLY A   2      25.299  35.960   1.419  0.00  0.00    -0.296 N 
ATOM      4  H   GLY A   2      24.270  35.895   1.557  0.00  0.00    +0.150 HD
ATOM      5  O   GLU A   1      27.033  37.246   0.812  0.00  0.00    -0.274 OA
BRANCH   2   6
ATOM      6  CA  GLU A   1      24.858  38.205   0.568  0.00  0.00    +0.145 C 
BRANCH   6   7
ATOM      7  N   GLU A   1      25.231  39.377   1.346  0.00  0.00    -0.238 NA
ATOM      8  H   GLU A   1      26.195  39.439   1.730  0.00  0.00    +0.142 HD
ENDBRANCH   6   7
BRANCH   6   9
ATOM      9  CB  GLU A   1      24.915  38.502  -0.940  0.00  0.00    +0.038 C 
BRANCH   9  10
ATOM     10  CG  GLU A   1      24.348  37.396  -1.820  0.00  0.00    +0.116 C 
BRANCH  10  11
ATOM     11  CD  GLU A   1      22.831  37.288  -1.731  0.00  0.00    +0.365 C 
ATOM     12  OE2 GLU A   1      22.315  36.156  -1.621  0.00  0.00    -0.246 OA
ATOM     13  OE1 GLU A   1      22.154  38.342  -1.761  0.00  0.00    -0.246 OA
ENDBRANCH  10  11
ENDBRANCH   9  10
ENDBRANCH   6   9
ENDBRANCH   2   6
ENDBRANCH   1   3
BRANCH   1  14
ATOM     14  C   GLY A   2      27.159  35.148   2.837  0.00  0.00    +0.243 C 
ATOM     15  O   GLY A   2      26.800  35.603   3.928  0.00  0.00    -0.273 OA
ATOM     16  N   ASN A   3      28.441  34.932   2.550  0.00  0.00    -0.298 N 
ATOM     17  H   ASN A   3      28.672  34.533   1.618  0.00  0.00    +0.150 HD
BRANCH  16  18
ATOM     18  CA  ASN A   3      29.543  35.221   3.463  0.00  0.00    +0.146 C 
BRANCH  18  19
ATOM     19  C   ASN A   3      29.997  36.673   3.386  0.00  0.00    +0.227 C 
ATOM     20  O   ASN A   3      30.999  37.038   4.003  0.00  0.00    -0.286 OA
ENDBRANCH  18  19
BRANCH  18  21
ATOM     21  CB  ASN A   3      30.752  34.320   3.153  0.00  0.00    +0.112 C 
BRANCH  21  22
ATOM     22  CG  ASN A   3      30.411  32.839   3.160  0.00  0.00    +0.222 C 
ATOM     23  OD1 ASN A   3      30.113  32.272   4.207  0.00  0.00    -0.275 OA
ATOM     24  ND2 ASN A   3      30.487  32.198   1.990  0.00  0.00    -0.329 N 
ATOM     25 HD21 ASN A   3      30.290  31.178   1.942  0.00  0.00    +0.145 HD
ATOM     26 HD22 ASN A   3      30.743  32.719   1.127  0.00  0.00    +0.145 HD
ENDBRANCH  21  22
ENDBRANCH  18  21
ENDBRANCH  16  18
ENDBRANCH   1  14
TORSDOF 11
REMARK  Name = ../refined-set-2016/4nbk/4nbk_pocket.pdb
REMARK  118 active torsions:
REMARK  status: ('A' for Active; 'I' for Inactive)
REMARK    1  A    between atoms: _1  and  _3
REMARK    2  A    between atoms: _3  and  _4
REMARK    3  A    between atoms: _6  and  _8
REMARK    4  A    between atoms: _8  and  _9
REMARK    5  A    between atoms: _8  and  _11
REMARK    6  A    between atoms: _11  and  _12
REMARK    7  A    between atoms: _17  and  _19
REMARK    8  A    between atoms: _19  and  _20
REMARK    9  A    between atoms: _19  and  _22
REMARK   10  A    between atoms: _22  and  _23
REMARK   11  A    between atoms: _23  and  _24
REMARK   12  A    between atoms: _29  and  _31
REMARK   13  A    between atoms: _31  and  _32
REMARK   14  A    between atoms: _31  and  _34
REMARK   15  A    between atoms: _37  and  _39
REMARK   16  A    between atoms: _39  and  _40
REMARK   17  A    between atoms: _39  and  _42
REMARK   18  A    between atoms: _42  and  _43
REMARK   19  A    between atoms: _48  and  _49
REMARK   20  A    between atoms: _51  and  _53
REMARK   21  A    between atoms: _53  and  _54
REMARK   22  A    between atoms: _53  and  _56
REMARK   23  A    between atoms: _56  and  _57
REMARK   24  A    between atoms: _60  and  _62
REMARK   25  A    between atoms: _62  and  _63
REMARK   26  A    between atoms: _62  and  _65
REMARK   27  A    between atoms: _65  and  _66
REMARK   28  A    between atoms: _70  and  _71
REMARK   29  A    between atoms: _76  and  _78
REMARK   30  A    between atoms: _78  and  _79
REMARK   31  A    between atoms: _82  and  _84
REMARK   32  A    between atoms: _84  and  _85
REMARK   33  A    between atoms: _84  and  _87
REMARK   34  A    between atoms: _87  and  _88
REMARK   35  A    between atoms: _93  and  _94
REMARK   36  A    between atoms: _96  and  _98
REMARK   37  A    between atoms: _98  and  _99
REMARK   38  A    between atoms: _98  and  _101
REMARK   39  A    between atoms: _101  and  _102
REMARK   40  A    between atoms: _102  and  _103
REMARK   41  A    between atoms: _106  and  _108
REMARK   42  A    between atoms: _108  and  _109
REMARK   43  A    between atoms: _112  and  _114
REMARK   44  A    between atoms: _114  and  _115
REMARK   45  A    between atoms: _114  and  _117
REMARK   46  A    between atoms: _117  and  _118
REMARK   47  A    between atoms: _118  and  _119
REMARK   48  A    between atoms: _122  and  _124
REMARK   49  A    between atoms: _124  and  _125
REMARK   50  A    between atoms: _127  and  _129
REMARK   51  A    between atoms: _129  and  _130
REMARK   52  A    between atoms: _129  and  _132
REMARK   53  A    between atoms: _132  and  _133
REMARK   54  A    between atoms: _138  and  _140
REMARK   55  A    between atoms: _140  and  _141
REMARK   56  A    between atoms: _140  and  _143
REMARK   57  A    between atoms: _143  and  _144
REMARK   58  A    between atoms: _144  and  _145
REMARK   59  A    between atoms: _150  and  _152
REMARK   60  A    between atoms: _152  and  _153
REMARK   61  A    between atoms: _156  and  _158
REMARK   62  A    between atoms: _158  and  _159
REMARK   63  A    between atoms: _158  and  _161
REMARK   64  A    between atoms: _161  and  _162
REMARK   65  A    between atoms: _162  and  _163
REMARK   66  A    between atoms: _163  and  _164
REMARK   67  A    between atoms: _173  and  _175
REMARK   68  A    between atoms: _175  and  _176
REMARK   69  A    between atoms: _179  and  _181
REMARK   70  A    between atoms: _181  and  _182
REMARK   71  A    between atoms: _185  and  _187
REMARK   72  A    between atoms: _187  and  _188
REMARK   73  A    between atoms: _187  and  _190
REMARK   74  A    between atoms: _190  and  _191
REMARK   75  A    between atoms: _193  and  _195
REMARK   76  A    between atoms: _195  and  _196
REMARK   77  A    between atoms: _195  and  _198
REMARK   78  A    between atoms: _201  and  _203
REMARK   79  A    between atoms: _203  and  _204
REMARK   80  A    between atoms: _203  and  _206
REMARK   81  A    between atoms: _206  and  _207
REMARK   82  A    between atoms: _212  and  _213
REMARK   83  A    between atoms: _215  and  _217
REMARK   84  A    between atoms: _217  and  _218
REMARK   85  A    between atoms: _217  and  _220
REMARK   86  A    between atoms: _220  and  _221
REMARK   87  A    between atoms: _224  and  _226
REMARK   88  A    between atoms: _226  and  _227
REMARK   89  A    between atoms: _226  and  _229
REMARK   90  A    between atoms: _229  and  _230
REMARK   91  A    between atoms: _234  and  _235
REMARK   92  A    between atoms: _240  and  _242
REMARK   93  A    between atoms: _242  and  _243
REMARK   94  A    between atoms: _242  and  _245
REMARK   95  A    between atoms: _245  and  _246
REMARK   96  A    between atoms: _251  and  _252
REMARK   97  A    between atoms: _254  and  _256
REMARK   98  A    between atoms: _256  and  _257
REMARK   99  A    between atoms: _256  and  _259
REMARK  100  A    between atoms: _262  and  _264
REMARK  101  A    between atoms: _264  and  _265
REMARK  102  A    between atoms: _268  and  _270
REMARK  103  A    between atoms: _270  and  _271
REMARK  104  A    between atoms: _270  and  _273
REMARK  105  A    between atoms: _273  and  _274
REMARK  106  A    between atoms: _274  and  _275
REMARK  107  A    between atoms: _278  and  _280
REMARK  108  A    between atoms: _280  and  _281
REMARK  109  A    between atoms: _283  and  _285
REMARK  110  A    between atoms: _285  and  _286
REMARK  111  A    between atoms: _285  and  _288
REMARK  112  A    between atoms: _288  and  _289
REMARK  113  A    between atoms: _294  and  _295
REMARK  114  A    between atoms: _297  and  _299
REMARK  115  A    between atoms: _299  and  _300
REMARK  116  A    between atoms: _299  and  _302
REMARK  117  A    between atoms: _304  and  _306
REMARK  118  A    between atoms: _306  and  _307
REMARK                            x       y       z     vdW  Elec       q    Type
REMARK                         _______ _______ _______ _____ _____    ______ ____
ROOT
ATOM      1  CB  GLN A   1      35.912  34.228   6.804  0.00  0.00    +0.035 C 
ENDROOT
BRANCH   1   2
ATOM      2  CA  GLN A   1      35.743  35.579   7.508  0.00  0.00    +0.134 C 
BRANCH   2   3
ATOM      3  N   GLN A   1      34.614  36.336   6.952  0.00  0.00    -0.239 NA
ATOM      4  H   GLN A   1      34.118  35.983   6.108  0.00  0.00    +0.142 HD
ENDBRANCH   2   3
BRANCH   2   5
ATOM      5  C   GLN A   1      37.053  36.359   7.429  0.00  0.00    +0.224 C 
ATOM      6  O   GLN A   1      37.929  36.199   8.280  0.00  0.00    -0.287 OA
ENDBRANCH   2   5
ENDBRANCH   1   2
BRANCH   1   7
ATOM      7  CG  GLN A   1      34.807  33.220   7.114  0.00  0.00    +0.087 C 
BRANCH   7   8
ATOM      8  CD  GLN A   1      33.661  33.300   6.130  0.00  0.00    +0.219 C 
ATOM      9  NE2 GLN A   1      32.892  32.223   6.024  0.00  0.00    -0.329 N 
ATOM     10 HE21 GLN A   1      33.092  31.382   6.602  0.00  0.00    +0.145 HD
ATOM     11 HE22 GLN A   1      32.089  32.220   5.363  0.00  0.00    +0.145 HD
ATOM     12  OE1 GLN A   1      33.469  34.321   5.470  0.00  0.00    -0.275 OA
ENDBRANCH   7   8
ENDBRANCH   1   7
TORSDOF 5
REMARK  Name = ../refined-set-2016/4nbk/4nbk_pocket.pdb
REMARK  118 active torsions:
REMARK  status: ('A' for Active; 'I' for Inactive)
REMARK    1  A    between atoms: _1  and  _3
REMARK    2  A    between atoms: _3  and  _4
REMARK    3  A    between atoms: _6  and  _8
REMARK    4  A    between atoms: _8  and  _9
REMARK    5  A    between atoms: _8  and  _11
REMARK    6  A    between atoms: _11  and  _12
REMARK    7  A    between atoms: _17  and  _19
REMARK    8  A    between atoms: _19  and  _20
REMARK    9  A    between atoms: _19  and  _22
REMARK   10  A    between atoms: _22  and  _23
REMARK   11  A    between atoms: _23  and  _24
REMARK   12  A    between atoms: _29  and  _31
REMARK   13  A    between atoms: _31  and  _32
REMARK   14  A    between atoms: _31  and  _34
REMARK   15  A    between atoms: _37  and  _39
REMARK   16  A    between atoms: _39  and  _40
REMARK   17  A    between atoms: _39  and  _42
REMARK   18  A    between atoms: _42  and  _43
REMARK   19  A    between atoms: _48  and  _49
REMARK   20  A    between atoms: _51  and  _53
REMARK   21  A    between atoms: _53  and  _54
REMARK   22  A    between atoms: _53  and  _56
REMARK   23  A    between atoms: _56  and  _57
REMARK   24  A    between atoms: _60  and  _62
REMARK   25  A    between atoms: _62  and  _63
REMARK   26  A    between atoms: _62  and  _65
REMARK   27  A    between atoms: _65  and  _66
REMARK   28  A    between atoms: _70  and  _71
REMARK   29  A    between atoms: _76  and  _78
REMARK   30  A    between atoms: _78  and  _79
REMARK   31  A    between atoms: _82  and  _84
REMARK   32  A    between atoms: _84  and  _85
REMARK   33  A    between atoms: _84  and  _87
REMARK   34  A    between atoms: _87  and  _88
REMARK   35  A    between atoms: _93  and  _94
REMARK   36  A    between atoms: _96  and  _98
REMARK   37  A    between atoms: _98  and  _99
REMARK   38  A    between atoms: _98  and  _101
REMARK   39  A    between atoms: _101  and  _102
REMARK   40  A    between atoms: _102  and  _103
REMARK   41  A    between atoms: _106  and  _108
REMARK   42  A    between atoms: _108  and  _109
REMARK   43  A    between atoms: _112  and  _114
REMARK   44  A    between atoms: _114  and  _115
REMARK   45  A    between atoms: _114  and  _117
REMARK   46  A    between atoms: _117  and  _118
REMARK   47  A    between atoms: _118  and  _119
REMARK   48  A    between atoms: _122  and  _124
REMARK   49  A    between atoms: _124  and  _125
REMARK   50  A    between atoms: _127  and  _129
REMARK   51  A    between atoms: _129  and  _130
REMARK   52  A    between atoms: _129  and  _132
REMARK   53  A    between atoms: _132  and  _133
REMARK   54  A    between atoms: _138  and  _140
REMARK   55  A    between atoms: _140  and  _141
REMARK   56  A    between atoms: _140  and  _143
REMARK   57  A    between atoms: _143  and  _144
REMARK   58  A    between atoms: _144  and  _145
REMARK   59  A    between atoms: _150  and  _152
REMARK   60  A    between atoms: _152  and  _153
REMARK   61  A    between atoms: _156  and  _158
REMARK   62  A    between atoms: _158  and  _159
REMARK   63  A    between atoms: _158  and  _161
REMARK   64  A    between atoms: _161  and  _162
REMARK   65  A    between atoms: _162  and  _163
REMARK   66  A    between atoms: _163  and  _164
REMARK   67  A    between atoms: _173  and  _175
REMARK   68  A    between atoms: _175  and  _176
REMARK   69  A    between atoms: _179  and  _181
REMARK   70  A    between atoms: _181  and  _182
REMARK   71  A    between atoms: _185  and  _187
REMARK   72  A    between atoms: _187  and  _188
REMARK   73  A    between atoms: _187  and  _190
REMARK   74  A    between atoms: _190  and  _191
REMARK   75  A    between atoms: _193  and  _195
REMARK   76  A    between atoms: _195  and  _196
REMARK   77  A    between atoms: _195  and  _198
REMARK   78  A    between atoms: _201  and  _203
REMARK   79  A    between atoms: _203  and  _204
REMARK   80  A    between atoms: _203  and  _206
REMARK   81  A    between atoms: _206  and  _207
REMARK   82  A    between atoms: _212  and  _213
REMARK   83  A    between atoms: _215  and  _217
REMARK   84  A    between atoms: _217  and  _218
REMARK   85  A    between atoms: _217  and  _220
REMARK   86  A    between atoms: _220  and  _221
REMARK   87  A    between atoms: _224  and  _226
REMARK   88  A    between atoms: _226  and  _227
REMARK   89  A    between atoms: _226  and  _229
REMARK   90  A    between atoms: _229  and  _230
REMARK   91  A    between atoms: _234  and  _235
REMARK   92  A    between atoms: _240  and  _242
REMARK   93  A    between atoms: _242  and  _243
REMARK   94  A    between atoms: _242  and  _245
REMARK   95  A    between atoms: _245  and  _246
REMARK   96  A    between atoms: _251  and  _252
REMARK   97  A    between atoms: _254  and  _256
REMARK   98  A    between atoms: _256  and  _257
REMARK   99  A    between atoms: _256  and  _259
REMARK  100  A    between atoms: _262  and  _264
REMARK  101  A    between atoms: _264  and  _265
REMARK  102  A    between atoms: _268  and  _270
REMARK  103  A    between atoms: _270  and  _271
REMARK  104  A    between atoms: _270  and  _273
REMARK  105  A    between atoms: _273  and  _274
REMARK  106  A    between atoms: _274  and  _275
REMARK  107  A    between atoms: _278  and  _280
REMARK  108  A    between atoms: _280  and  _281
REMARK  109  A    between atoms: _283  and  _285
REMARK  110  A    between atoms: _285  and  _286
REMARK  111  A    between atoms: _285  and  _288
REMARK  112  A    between atoms: _288  and  _289
REMARK  113  A    between atoms: _294  and  _295
REMARK  114  A    between atoms: _297  and  _299
REMARK  115  A    between atoms: _299  and  _300
REMARK  116  A    between atoms: _299  and  _302
REMARK  117  A    between atoms: _304  and  _306
REMARK  118  A    between atoms: _306  and  _307
REMARK                            x       y       z     vdW  Elec       q    Type
REMARK                         _______ _______ _______ _____ _____    ______ ____
ROOT
ATOM      1  CA  ALA A   1      22.804  43.096   6.773  0.00  0.00    +0.133 C 
ATOM      2  CB  ALA A   1      24.304  42.803   6.521  0.00  0.00    +0.027 C 
ENDROOT
BRANCH   1   3
ATOM      3  N   ALA A   1      22.544  43.200   8.202  0.00  0.00    -0.239 NA
ATOM      4  H   ALA A   1      22.117  42.393   8.700  0.00  0.00    +0.142 HD
ENDBRANCH   1   3
BRANCH   1   5
ATOM      5  C   ALA A   1      21.932  42.019   6.137  0.00  0.00    +0.224 C 
ATOM      6  O   ALA A   1      21.913  40.869   6.579  0.00  0.00    -0.287 OA
ENDBRANCH   1   5
TORSDOF 2
REMARK  Name = ../refined-set-2016/4nbk/4nbk_pocket.pdb
REMARK  118 active torsions:
REMARK  status: ('A' for Active; 'I' for Inactive)
REMARK    1  A    between atoms: _1  and  _3
REMARK    2  A    between atoms: _3  and  _4
REMARK    3  A    between atoms: _6  and  _8
REMARK    4  A    between atoms: _8  and  _9
REMARK    5  A    between atoms: _8  and  _11
REMARK    6  A    between atoms: _11  and  _12
REMARK    7  A    between atoms: _17  and  _19
REMARK    8  A    between atoms: _19  and  _20
REMARK    9  A    between atoms: _19  and  _22
REMARK   10  A    between atoms: _22  and  _23
REMARK   11  A    between atoms: _23  and  _24
REMARK   12  A    between atoms: _29  and  _31
REMARK   13  A    between atoms: _31  and  _32
REMARK   14  A    between atoms: _31  and  _34
REMARK   15  A    between atoms: _37  and  _39
REMARK   16  A    between atoms: _39  and  _40
REMARK   17  A    between atoms: _39  and  _42
REMARK   18  A    between atoms: _42  and  _43
REMARK   19  A    between atoms: _48  and  _49
REMARK   20  A    between atoms: _51  and  _53
REMARK   21  A    between atoms: _53  and  _54
REMARK   22  A    between atoms: _53  and  _56
REMARK   23  A    between atoms: _56  and  _57
REMARK   24  A    between atoms: _60  and  _62
REMARK   25  A    between atoms: _62  and  _63
REMARK   26  A    between atoms: _62  and  _65
REMARK   27  A    between atoms: _65  and  _66
REMARK   28  A    between atoms: _70  and  _71
REMARK   29  A    between atoms: _76  and  _78
REMARK   30  A    between atoms: _78  and  _79
REMARK   31  A    between atoms: _82  and  _84
REMARK   32  A    between atoms: _84  and  _85
REMARK   33  A    between atoms: _84  and  _87
REMARK   34  A    between atoms: _87  and  _88
REMARK   35  A    between atoms: _93  and  _94
REMARK   36  A    between atoms: _96  and  _98
REMARK   37  A    between atoms: _98  and  _99
REMARK   38  A    between atoms: _98  and  _101
REMARK   39  A    between atoms: _101  and  _102
REMARK   40  A    between atoms: _102  and  _103
REMARK   41  A    between atoms: _106  and  _108
REMARK   42  A    between atoms: _108  and  _109
REMARK   43  A    between atoms: _112  and  _114
REMARK   44  A    between atoms: _114  and  _115
REMARK   45  A    between atoms: _114  and  _117
REMARK   46  A    between atoms: _117  and  _118
REMARK   47  A    between atoms: _118  and  _119
REMARK   48  A    between atoms: _122  and  _124
REMARK   49  A    between atoms: _124  and  _125
REMARK   50  A    between atoms: _127  and  _129
REMARK   51  A    between atoms: _129  and  _130
REMARK   52  A    between atoms: _129  and  _132
REMARK   53  A    between atoms: _132  and  _133
REMARK   54  A    between atoms: _138  and  _140
REMARK   55  A    between atoms: _140  and  _141
REMARK   56  A    between atoms: _140  and  _143
REMARK   57  A    between atoms: _143  and  _144
REMARK   58  A    between atoms: _144  and  _145
REMARK   59  A    between atoms: _150  and  _152
REMARK   60  A    between atoms: _152  and  _153
REMARK   61  A    between atoms: _156  and  _158
REMARK   62  A    between atoms: _158  and  _159
REMARK   63  A    between atoms: _158  and  _161
REMARK   64  A    between atoms: _161  and  _162
REMARK   65  A    between atoms: _162  and  _163
REMARK   66  A    between atoms: _163  and  _164
REMARK   67  A    between atoms: _173  and  _175
REMARK   68  A    between atoms: _175  and  _176
REMARK   69  A    between atoms: _179  and  _181
REMARK   70  A    between atoms: _181  and  _182
REMARK   71  A    between atoms: _185  and  _187
REMARK   72  A    between atoms: _187  and  _188
REMARK   73  A    between atoms: _187  and  _190
REMARK   74  A    between atoms: _190  and  _191
REMARK   75  A    between atoms: _193  and  _195
REMARK   76  A    between atoms: _195  and  _196
REMARK   77  A    between atoms: _195  and  _198
REMARK   78  A    between atoms: _201  and  _203
REMARK   79  A    between atoms: _203  and  _204
REMARK   80  A    between atoms: _203  and  _206
REMARK   81  A    between atoms: _206  and  _207
REMARK   82  A    between atoms: _212  and  _213
REMARK   83  A    between atoms: _215  and  _217
REMARK   84  A    between atoms: _217  and  _218
REMARK   85  A    between atoms: _217  and  _220
REMARK   86  A    between atoms: _220  and  _221
REMARK   87  A    between atoms: _224  and  _226
REMARK   88  A    between atoms: _226  and  _227
REMARK   89  A    between atoms: _226  and  _229
REMARK   90  A    between atoms: _229  and  _230
REMARK   91  A    between atoms: _234  and  _235
REMARK   92  A    between atoms: _240  and  _242
REMARK   93  A    between atoms: _242  and  _243
REMARK   94  A    between atoms: _242  and  _245
REMARK   95  A    between atoms: _245  and  _246
REMARK   96  A    between atoms: _251  and  _252
REMARK   97  A    between atoms: _254  and  _256
REMARK   98  A    between atoms: _256  and  _257
REMARK   99  A    between atoms: _256  and  _259
REMARK  100  A    between atoms: _262  and  _264
REMARK  101  A    between atoms: _264  and  _265
REMARK  102  A    between atoms: _268  and  _270
REMARK  103  A    between atoms: _270  and  _271
REMARK  104  A    between atoms: _270  and  _273
REMARK  105  A    between atoms: _273  and  _274
REMARK  106  A    between atoms: _274  and  _275
REMARK  107  A    between atoms: _278  and  _280
REMARK  108  A    between atoms: _280  and  _281
REMARK  109  A    between atoms: _283  and  _285
REMARK  110  A    between atoms: _285  and  _286
REMARK  111  A    between atoms: _285  and  _288
REMARK  112  A    between atoms: _288  and  _289
REMARK  113  A    between atoms: _294  and  _295
REMARK  114  A    between atoms: _297  and  _299
REMARK  115  A    between atoms: _299  and  _300
REMARK  116  A    between atoms: _299  and  _302
REMARK  117  A    between atoms: _304  and  _306
REMARK  118  A    between atoms: _306  and  _307
REMARK                            x       y       z     vdW  Elec       q    Type
REMARK                         _______ _______ _______ _____ _____    ______ ____
ROOT
ATOM      1  NE  ARG A   1      19.170  37.866  -1.768  0.00  0.00    -0.265 N 
ATOM      2  CZ  ARG A   1      18.805  36.744  -1.161  0.00  0.00    +0.342 C 
ATOM      3  NH2 ARG A   1      17.536  36.561  -0.824  0.00  0.00    -0.292 N 
ATOM      4 HH21 ARG A   1      17.246  35.683  -0.348  0.00  0.00    +0.255 HD
ATOM      5 HH22 ARG A   1      16.831  37.295  -1.036  0.00  0.00    +0.255 HD
ATOM      6  NH1 ARG A   1      19.705  35.802  -0.902  0.00  0.00    -0.292 N 
ATOM      7 HH11 ARG A   1      19.416  34.924  -0.426  0.00  0.00    +0.255 HD
ATOM      8 HH12 ARG A   1      20.699  35.943  -1.175  0.00  0.00    +0.255 HD
ATOM      9  HE  ARG A   1      20.169  37.976  -2.035  0.00  0.00    +0.259 HD
ENDROOT
BRANCH   1  10
ATOM     10  CD  ARG A   1      18.250  38.955  -2.083  0.00  0.00    +0.174 C 
BRANCH  10  11
ATOM     11  CG  ARG A   1      18.638  40.247  -1.386  0.00  0.00    +0.045 C 
BRANCH  11  12
ATOM     12  CB  ARG A   1      18.598  40.129   0.138  0.00  0.00    +0.029 C 
BRANCH  12  13
ATOM     13  CA  ARG A   1      19.281  41.318   0.808  0.00  0.00    +0.133 C 
BRANCH  13  14
ATOM     14  N   ARG A   1      19.283  41.191   2.254  0.00  0.00    -0.239 NA
ATOM     15  H   ARG A   1      18.518  40.683   2.742  0.00  0.00    +0.142 HD
ENDBRANCH  13  14
BRANCH  13  16
ATOM     16  C   ARG A   1      18.613  42.603   0.358  0.00  0.00    +0.224 C 
ATOM     17  O   ARG A   1      17.417  42.802   0.564  0.00  0.00    -0.287 OA
ENDBRANCH  13  16
ENDBRANCH  12  13
ENDBRANCH  11  12
ENDBRANCH  10  11
ENDBRANCH   1  10
TORSDOF 6
REMARK  Name = ../refined-set-2016/4nbk/4nbk_pocket.pdb
REMARK  118 active torsions:
REMARK  status: ('A' for Active; 'I' for Inactive)
REMARK    1  A    between atoms: _1  and  _3
REMARK    2  A    between atoms: _3  and  _4
REMARK    3  A    between atoms: _6  and  _8
REMARK    4  A    between atoms: _8  and  _9
REMARK    5  A    between atoms: _8  and  _11
REMARK    6  A    between atoms: _11  and  _12
REMARK    7  A    between atoms: _17  and  _19
REMARK    8  A    between atoms: _19  and  _20
REMARK    9  A    between atoms: _19  and  _22
REMARK   10  A    between atoms: _22  and  _23
REMARK   11  A    between atoms: _23  and  _24
REMARK   12  A    between atoms: _29  and  _31
REMARK   13  A    between atoms: _31  and  _32
REMARK   14  A    between atoms: _31  and  _34
REMARK   15  A    between atoms: _37  and  _39
REMARK   16  A    between atoms: _39  and  _40
REMARK   17  A    between atoms: _39  and  _42
REMARK   18  A    between atoms: _42  and  _43
REMARK   19  A    between atoms: _48  and  _49
REMARK   20  A    between atoms: _51  and  _53
REMARK   21  A    between atoms: _53  and  _54
REMARK   22  A    between atoms: _53  and  _56
REMARK   23  A    between atoms: _56  and  _57
REMARK   24  A    between atoms: _60  and  _62
REMARK   25  A    between atoms: _62  and  _63
REMARK   26  A    between atoms: _62  and  _65
REMARK   27  A    between atoms: _65  and  _66
REMARK   28  A    between atoms: _70  and  _71
REMARK   29  A    between atoms: _76  and  _78
REMARK   30  A    between atoms: _78  and  _79
REMARK   31  A    between atoms: _82  and  _84
REMARK   32  A    between atoms: _84  and  _85
REMARK   33  A    between atoms: _84  and  _87
REMARK   34  A    between atoms: _87  and  _88
REMARK   35  A    between atoms: _93  and  _94
REMARK   36  A    between atoms: _96  and  _98
REMARK   37  A    between atoms: _98  and  _99
REMARK   38  A    between atoms: _98  and  _101
REMARK   39  A    between atoms: _101  and  _102
REMARK   40  A    between atoms: _102  and  _103
REMARK   41  A    between atoms: _106  and  _108
REMARK   42  A    between atoms: _108  and  _109
REMARK   43  A    between atoms: _112  and  _114
REMARK   44  A    between atoms: _114  and  _115
REMARK   45  A    between atoms: _114  and  _117
REMARK   46  A    between atoms: _117  and  _118
REMARK   47  A    between atoms: _118  and  _119
REMARK   48  A    between atoms: _122  and  _124
REMARK   49  A    between atoms: _124  and  _125
REMARK   50  A    between atoms: _127  and  _129
REMARK   51  A    between atoms: _129  and  _130
REMARK   52  A    between atoms: _129  and  _132
REMARK   53  A    between atoms: _132  and  _133
REMARK   54  A    between atoms: _138  and  _140
REMARK   55  A    between atoms: _140  and  _141
REMARK   56  A    between atoms: _140  and  _143
REMARK   57  A    between atoms: _143  and  _144
REMARK   58  A    between atoms: _144  and  _145
REMARK   59  A    between atoms: _150  and  _152
REMARK   60  A    between atoms: _152  and  _153
REMARK   61  A    between atoms: _156  and  _158
REMARK   62  A    between atoms: _158  and  _159
REMARK   63  A    between atoms: _158  and  _161
REMARK   64  A    between atoms: _161  and  _162
REMARK   65  A    between atoms: _162  and  _163
REMARK   66  A    between atoms: _163  and  _164
REMARK   67  A    between atoms: _173  and  _175
REMARK   68  A    between atoms: _175  and  _176
REMARK   69  A    between atoms: _179  and  _181
REMARK   70  A    between atoms: _181  and  _182
REMARK   71  A    between atoms: _185  and  _187
REMARK   72  A    between atoms: _187  and  _188
REMARK   73  A    between atoms: _187  and  _190
REMARK   74  A    between atoms: _190  and  _191
REMARK   75  A    between atoms: _193  and  _195
REMARK   76  A    between atoms: _195  and  _196
REMARK   77  A    between atoms: _195  and  _198
REMARK   78  A    between atoms: _201  and  _203
REMARK   79  A    between atoms: _203  and  _204
REMARK   80  A    between atoms: _203  and  _206
REMARK   81  A    between atoms: _206  and  _207
REMARK   82  A    between atoms: _212  and  _213
REMARK   83  A    between atoms: _215  and  _217
REMARK   84  A    between atoms: _217  and  _218
REMARK   85  A    between atoms: _217  and  _220
REMARK   86  A    between atoms: _220  and  _221
REMARK   87  A    between atoms: _224  and  _226
REMARK   88  A    between atoms: _226  and  _227
REMARK   89  A    between atoms: _226  and  _229
REMARK   90  A    between atoms: _229  and  _230
REMARK   91  A    between atoms: _234  and  _235
REMARK   92  A    between atoms: _240  and  _242
REMARK   93  A    between atoms: _242  and  _243
REMARK   94  A    between atoms: _242  and  _245
REMARK   95  A    between atoms: _245  and  _246
REMARK   96  A    between atoms: _251  and  _252
REMARK   97  A    between atoms: _254  and  _256
REMARK   98  A    between atoms: _256  and  _257
REMARK   99  A    between atoms: _256  and  _259
REMARK  100  A    between atoms: _262  and  _264
REMARK  101  A    between atoms: _264  and  _265
REMARK  102  A    between atoms: _268  and  _270
REMARK  103  A    between atoms: _270  and  _271
REMARK  104  A    between atoms: _270  and  _273
REMARK  105  A    between atoms: _273  and  _274
REMARK  106  A    between atoms: _274  and  _275
REMARK  107  A    between atoms: _278  and  _280
REMARK  108  A    between atoms: _280  and  _281
REMARK  109  A    between atoms: _283  and  _285
REMARK  110  A    between atoms: _285  and  _286
REMARK  111  A    between atoms: _285  and  _288
REMARK  112  A    between atoms: _288  and  _289
REMARK  113  A    between atoms: _294  and  _295
REMARK  114  A    between atoms: _297  and  _299
REMARK  115  A    between atoms: _299  and  _300
REMARK  116  A    between atoms: _299  and  _302
REMARK  117  A    between atoms: _304  and  _306
REMARK  118  A    between atoms: _306  and  _307
REMARK                            x       y       z     vdW  Elec       q    Type
REMARK                         _______ _______ _______ _____ _____    ______ ____
ROOT
ATOM      1  CA  TYR A   5      25.007  33.405   6.646  0.00  0.00    +0.153 C 
ENDROOT
BRANCH   1   4
ATOM      2  C   VAL A   4      23.910  35.533   6.135  0.00  0.00    +0.241 C 
ATOM      3  O   VAL A   4      23.154  35.463   7.103  0.00  0.00    -0.273 OA
ATOM      4  N   TYR A   5      24.818  34.608   5.843  0.00  0.00    -0.297 N 
ATOM      5  H   TYR A   5      25.420  34.748   5.006  0.00  0.00    +0.150 HD
BRANCH   2   6
ATOM      6  CA  VAL A   4      23.850  36.716   5.187  0.00  0.00    +0.149 C 
BRANCH   6   8
ATOM      7  C   SER A   3      22.156  36.257   3.493  0.00  0.00    +0.243 C 
ATOM      8  N   VAL A   4      22.519  36.877   4.610  0.00  0.00    -0.297 N 
ATOM      9  H   VAL A   4      21.834  37.496   5.088  0.00  0.00    +0.150 HD
ATOM     10  O   SER A   3      22.888  35.473   2.893  0.00  0.00    -0.273 OA
BRANCH   7  11
ATOM     11  CA  SER A   3      20.755  36.583   2.966  0.00  0.00    +0.178 C 
BRANCH  11  13
ATOM     12  C   ALA A   2      18.578  36.624   4.032  0.00  0.00    +0.241 C 
ATOM     13  N   SER A   3      19.845  37.028   4.018  0.00  0.00    -0.295 N 
ATOM     14  H   SER A   3      20.191  37.666   4.763  0.00  0.00    +0.150 HD
ATOM     15  O   ALA A   2      18.124  35.851   3.194  0.00  0.00    -0.273 OA
BRANCH  12  16
ATOM     16  CA  ALA A   2      17.680  37.179   5.142  0.00  0.00    +0.149 C 
ATOM     17  CB  ALA A   2      17.466  36.133   6.221  0.00  0.00    +0.031 C 
BRANCH  16  19
ATOM     18  C   ALA A   1      16.351  38.487   3.570  0.00  0.00    +0.238 C 
ATOM     19  N   ALA A   2      16.403  37.613   4.575  0.00  0.00    -0.297 N 
ATOM     20  H   ALA A   2      15.517  37.232   4.964  0.00  0.00    +0.150 HD
ATOM     21  O   ALA A   1      17.348  39.094   3.158  0.00  0.00    -0.274 OA
BRANCH  18  22
ATOM     22  CA  ALA A   1      14.978  38.723   2.930  0.00  0.00    +0.145 C 
ATOM     23  CB  ALA A   1      14.824  37.868   1.671  0.00  0.00    +0.028 C 
BRANCH  22  24
ATOM     24  N   ALA A   1      14.770  40.137   2.609  0.00  0.00    -0.238 NA
ATOM     25  H   ALA A   1      14.695  40.431   1.614  0.00  0.00    +0.142 HD
ENDBRANCH  22  24
ENDBRANCH  18  22
ENDBRANCH  16  19
ENDBRANCH  12  16
ENDBRANCH  11  13
BRANCH  11  26
ATOM     26  CB  SER A   3      20.857  37.656   1.888  0.00  0.00    +0.166 C 
BRANCH  26  27
ATOM     27  OG  SER A   3      21.422  38.837   2.434  0.00  0.00    -0.380 OA
ATOM     28  H   SER A   3      21.485  39.528   1.728  0.00  0.00    +0.211 HD
ENDBRANCH  26  27
ENDBRANCH  11  26
ENDBRANCH   7  11
ENDBRANCH   6   8
BRANCH   6  29
ATOM     29  CB  VAL A   4      24.282  37.981   5.932  0.00  0.00    +0.027 C 
ATOM     30  CG2 VAL A   4      25.617  37.760   6.608  0.00  0.00    +0.002 C 
ATOM     31  CG1 VAL A   4      24.367  39.144   4.954  0.00  0.00    +0.002 C 
ENDBRANCH   6  29
ENDBRANCH   2   6
ENDBRANCH   1   4
BRANCH   1  32
ATOM     32  C   TYR A   5      25.281  33.761   8.097  0.00  0.00    +0.241 C 
ATOM     33  N   THR A   6      24.670  33.035   9.029  0.00  0.00    -0.295 N 
ATOM     34  H   THR A   6      24.027  32.268   8.748  0.00  0.00    +0.150 HD
ATOM     35  O   TYR A   5      26.038  34.686   8.371  0.00  0.00    -0.273 OA
BRANCH  33  36
ATOM     36  CA  THR A   6      24.897  33.309  10.443  0.00  0.00    +0.176 C 
BRANCH  36  37
ATOM     37  C   THR A   6      26.182  32.609  10.865  0.00  0.00    +0.243 C 
ATOM     38  O   THR A   6      26.161  31.584  11.544  0.00  0.00    -0.273 OA
ATOM     39  N   LEU A   7      27.303  33.180  10.434  0.00  0.00    -0.297 N 
ATOM     40  H   LEU A   7      27.244  34.118   9.989  0.00  0.00    +0.150 HD
BRANCH  39  41
ATOM     41  CA  LEU A   7      28.611  32.547  10.559  0.00  0.00    +0.149 C 
BRANCH  41  42
ATOM     42  C   LEU A   7      29.172  32.582  11.973  0.00  0.00    +0.244 C 
ATOM     43  O   LEU A   7      28.966  33.556  12.707  0.00  0.00    -0.273 OA
ATOM     44  N   PRO A   8      29.905  31.523  12.348  0.00  0.00    -0.273 N 
ATOM     45  CA  PRO A   8      30.661  31.490  13.594  0.00  0.00    +0.140 C 
ATOM     46  CB  PRO A   8      30.813  29.997  13.862  0.00  0.00    +0.030 C 
ATOM     47  CG  PRO A   8      30.980  29.427  12.483  0.00  0.00    +0.024 C 
ATOM     48  CD  PRO A   8      30.112  30.288  11.564  0.00  0.00    +0.094 C 
BRANCH  45  49
ATOM     49  C   PRO A   8      32.015  32.150  13.370  0.00  0.00    +0.227 C 
ATOM     50  O   PRO A   8      32.230  32.729  12.307  0.00  0.00    -0.286 OA
ENDBRANCH  45  49
ENDBRANCH  41  42
BRANCH  41  51
ATOM     51  CB  LEU A   7      29.611  33.234   9.633  0.00  0.00    +0.029 C 
BRANCH  51  52
ATOM     52  CG  LEU A   7      29.326  33.192   8.136  0.00  0.00    +0.002 C 
ATOM     53  CD2 LEU A   7      29.584  31.807   7.619  0.00  0.00    +0.000 C 
ATOM     54  CD1 LEU A   7      30.192  34.218   7.412  0.00  0.00    +0.000 C 
ENDBRANCH  51  52
ENDBRANCH  41  51
ENDBRANCH  39  41
ENDBRANCH  36  37
BRANCH  36  55
ATOM     55  CB  THR A   6      23.714  32.855  11.301  0.00  0.00    +0.137 C 
ATOM     56  CG2 THR A   6      22.470  33.627  10.885  0.00  0.00    +0.034 C 
BRANCH  55  57
ATOM     57  OG1 THR A   6      23.495  31.452  11.109  0.00  0.00    -0.382 OA
ATOM     58  HG1 THR A   6      24.307  30.953  11.376  0.00  0.00    +0.210 HD
ENDBRANCH  55  57
ENDBRANCH  36  55
ENDBRANCH  33  36
ENDBRANCH   1  32
BRANCH   1  59
ATOM     59  CB  TYR A   5      26.166  32.577   6.089  0.00  0.00    +0.055 C 
BRANCH  59  60
ATOM     60  CG  TYR A   5      25.965  32.123   4.659  0.00  0.00    -0.020 A 
ATOM     61  CD2 TYR A   5      24.695  31.864   4.158  0.00  0.00    -0.001 A 
ATOM     62  CE2 TYR A   5      24.517  31.439   2.840  0.00  0.00    +0.036 A 
ATOM     63  CZ  TYR A   5      25.622  31.267   2.024  0.00  0.00    +0.134 A 
ATOM     64  CE1 TYR A   5      26.885  31.514   2.502  0.00  0.00    +0.036 A 
ATOM     65  CD1 TYR A   5      27.051  31.945   3.813  0.00  0.00    -0.001 A 
BRANCH  63  66
ATOM     66  OH  TYR A   5      25.457  30.849   0.719  0.00  0.00    -0.506 OA
ATOM     67  HH  TYR A   5      24.493  30.717   0.535  0.00  0.00    +0.292 HD
ENDBRANCH  63  66
ENDBRANCH  59  60
ENDBRANCH   1  59
TORSDOF 25
REMARK  Name = ../refined-set-2016/4nbk/4nbk_pocket.pdb
REMARK  118 active torsions:
REMARK  status: ('A' for Active; 'I' for Inactive)
REMARK    1  A    between atoms: _1  and  _3
REMARK    2  A    between atoms: _3  and  _4
REMARK    3  A    between atoms: _6  and  _8
REMARK    4  A    between atoms: _8  and  _9
REMARK    5  A    between atoms: _8  and  _11
REMARK    6  A    between atoms: _11  and  _12
REMARK    7  A    between atoms: _17  and  _19
REMARK    8  A    between atoms: _19  and  _20
REMARK    9  A    between atoms: _19  and  _22
REMARK   10  A    between atoms: _22  and  _23
REMARK   11  A    between atoms: _23  and  _24
REMARK   12  A    between atoms: _29  and  _31
REMARK   13  A    between atoms: _31  and  _32
REMARK   14  A    between atoms: _31  and  _34
REMARK   15  A    between atoms: _37  and  _39
REMARK   16  A    between atoms: _39  and  _40
REMARK   17  A    between atoms: _39  and  _42
REMARK   18  A    between atoms: _42  and  _43
REMARK   19  A    between atoms: _48  and  _49
REMARK   20  A    between atoms: _51  and  _53
REMARK   21  A    between atoms: _53  and  _54
REMARK   22  A    between atoms: _53  and  _56
REMARK   23  A    between atoms: _56  and  _57
REMARK   24  A    between atoms: _60  and  _62
REMARK   25  A    between atoms: _62  and  _63
REMARK   26  A    between atoms: _62  and  _65
REMARK   27  A    between atoms: _65  and  _66
REMARK   28  A    between atoms: _70  and  _71
REMARK   29  A    between atoms: _76  and  _78
REMARK   30  A    between atoms: _78  and  _79
REMARK   31  A    between atoms: _82  and  _84
REMARK   32  A    between atoms: _84  and  _85
REMARK   33  A    between atoms: _84  and  _87
REMARK   34  A    between atoms: _87  and  _88
REMARK   35  A    between atoms: _93  and  _94
REMARK   36  A    between atoms: _96  and  _98
REMARK   37  A    between atoms: _98  and  _99
REMARK   38  A    between atoms: _98  and  _101
REMARK   39  A    between atoms: _101  and  _102
REMARK   40  A    between atoms: _102  and  _103
REMARK   41  A    between atoms: _106  and  _108
REMARK   42  A    between atoms: _108  and  _109
REMARK   43  A    between atoms: _112  and  _114
REMARK   44  A    between atoms: _114  and  _115
REMARK   45  A    between atoms: _114  and  _117
REMARK   46  A    between atoms: _117  and  _118
REMARK   47  A    between atoms: _118  and  _119
REMARK   48  A    between atoms: _122  and  _124
REMARK   49  A    between atoms: _124  and  _125
REMARK   50  A    between atoms: _127  and  _129
REMARK   51  A    between atoms: _129  and  _130
REMARK   52  A    between atoms: _129  and  _132
REMARK   53  A    between atoms: _132  and  _133
REMARK   54  A    between atoms: _138  and  _140
REMARK   55  A    between atoms: _140  and  _141
REMARK   56  A    between atoms: _140  and  _143
REMARK   57  A    between atoms: _143  and  _144
REMARK   58  A    between atoms: _144  and  _145
REMARK   59  A    between atoms: _150  and  _152
REMARK   60  A    between atoms: _152  and  _153
REMARK   61  A    between atoms: _156  and  _158
REMARK   62  A    between atoms: _158  and  _159
REMARK   63  A    between atoms: _158  and  _161
REMARK   64  A    between atoms: _161  and  _162
REMARK   65  A    between atoms: _162  and  _163
REMARK   66  A    between atoms: _163  and  _164
REMARK   67  A    between atoms: _173  and  _175
REMARK   68  A    between atoms: _175  and  _176
REMARK   69  A    between atoms: _179  and  _181
REMARK   70  A    between atoms: _181  and  _182
REMARK   71  A    between atoms: _185  and  _187
REMARK   72  A    between atoms: _187  and  _188
REMARK   73  A    between atoms: _187  and  _190
REMARK   74  A    between atoms: _190  and  _191
REMARK   75  A    between atoms: _193  and  _195
REMARK   76  A    between atoms: _195  and  _196
REMARK   77  A    between atoms: _195  and  _198
REMARK   78  A    between atoms: _201  and  _203
REMARK   79  A    between atoms: _203  and  _204
REMARK   80  A    between atoms: _203  and  _206
REMARK   81  A    between atoms: _206  and  _207
REMARK   82  A    between atoms: _212  and  _213
REMARK   83  A    between atoms: _215  and  _217
REMARK   84  A    between atoms: _217  and  _218
REMARK   85  A    between atoms: _217  and  _220
REMARK   86  A    between atoms: _220  and  _221
REMARK   87  A    between atoms: _224  and  _226
REMARK   88  A    between atoms: _226  and  _227
REMARK   89  A    between atoms: _226  and  _229
REMARK   90  A    between atoms: _229  and  _230
REMARK   91  A    between atoms: _234  and  _235
REMARK   92  A    between atoms: _240  and  _242
REMARK   93  A    between atoms: _242  and  _243
REMARK   94  A    between atoms: _242  and  _245
REMARK   95  A    between atoms: _245  and  _246
REMARK   96  A    between atoms: _251  and  _252
REMARK   97  A    between atoms: _254  and  _256
REMARK   98  A    between atoms: _256  and  _257
REMARK   99  A    between atoms: _256  and  _259
REMARK  100  A    between atoms: _262  and  _264
REMARK  101  A    between atoms: _264  and  _265
REMARK  102  A    between atoms: _268  and  _270
REMARK  103  A    between atoms: _270  and  _271
REMARK  104  A    between atoms: _270  and  _273
REMARK  105  A    between atoms: _273  and  _274
REMARK  106  A    between atoms: _274  and  _275
REMARK  107  A    between atoms: _278  and  _280
REMARK  108  A    between atoms: _280  and  _281
REMARK  109  A    between atoms: _283  and  _285
REMARK  110  A    between atoms: _285  and  _286
REMARK  111  A    between atoms: _285  and  _288
REMARK  112  A    between atoms: _288  and  _289
REMARK  113  A    between atoms: _294  and  _295
REMARK  114  A    between atoms: _297  and  _299
REMARK  115  A    between atoms: _299  and  _300
REMARK  116  A    between atoms: _299  and  _302
REMARK  117  A    between atoms: _304  and  _306
REMARK  118  A    between atoms: _306  and  _307
REMARK                            x       y       z     vdW  Elec       q    Type
REMARK                         _______ _______ _______ _____ _____    ______ ____
ROOT
ATOM      1  CG  TYR A   1      24.242  36.892  12.275  0.00  0.00    -0.020 A 
ATOM      2  CD2 TYR A   1      24.882  35.983  13.107  0.00  0.00    -0.001 A 
ATOM      3  CE2 TYR A   1      26.183  35.582  12.857  0.00  0.00    +0.036 A 
ATOM      4  CZ  TYR A   1      26.858  36.104  11.768  0.00  0.00    +0.134 A 
ATOM      5  CE1 TYR A   1      26.244  37.010  10.927  0.00  0.00    +0.036 A 
ATOM      6  CD1 TYR A   1      24.947  37.412  11.191  0.00  0.00    -0.001 A 
ENDROOT
BRANCH   4   7
ATOM      7  OH  TYR A   1      28.148  35.706  11.519  0.00  0.00    -0.506 OA
ATOM      8  HH  TYR A   1      28.168  34.727  11.373  0.00  0.00    +0.292 HD
ENDBRANCH   4   7
BRANCH   1   9
ATOM      9  CB  TYR A   1      22.839  37.351  12.573  0.00  0.00    +0.051 C 
BRANCH   9  10
ATOM     10  CA  TYR A   1      22.831  38.625  13.426  0.00  0.00    +0.137 C 
BRANCH  10  11
ATOM     11  N   TYR A   1      23.464  38.374  14.727  0.00  0.00    -0.239 NA
ATOM     12  H   TYR A   1      23.050  37.666  15.366  0.00  0.00    +0.142 HD
ENDBRANCH  10  11
BRANCH  10  13
ATOM     13  C   TYR A   1      21.412  39.129  13.572  0.00  0.00    +0.224 C 
ATOM     14  O   TYR A   1      20.656  38.628  14.406  0.00  0.00    -0.287 OA
ENDBRANCH  10  13
ENDBRANCH   9  10
ENDBRANCH   1   9
TORSDOF 5
REMARK  Name = ../refined-set-2016/4nbk/4nbk_pocket.pdb
REMARK  118 active torsions:
REMARK  status: ('A' for Active; 'I' for Inactive)
REMARK    1  A    between atoms: _1  and  _3
REMARK    2  A    between atoms: _3  and  _4
REMARK    3  A    between atoms: _6  and  _8
REMARK    4  A    between atoms: _8  and  _9
REMARK    5  A    between atoms: _8  and  _11
REMARK    6  A    between atoms: _11  and  _12
REMARK    7  A    between atoms: _17  and  _19
REMARK    8  A    between atoms: _19  and  _20
REMARK    9  A    between atoms: _19  and  _22
REMARK   10  A    between atoms: _22  and  _23
REMARK   11  A    between atoms: _23  and  _24
REMARK   12  A    between atoms: _29  and  _31
REMARK   13  A    between atoms: _31  and  _32
REMARK   14  A    between atoms: _31  and  _34
REMARK   15  A    between atoms: _37  and  _39
REMARK   16  A    between atoms: _39  and  _40
REMARK   17  A    between atoms: _39  and  _42
REMARK   18  A    between atoms: _42  and  _43
REMARK   19  A    between atoms: _48  and  _49
REMARK   20  A    between atoms: _51  and  _53
REMARK   21  A    between atoms: _53  and  _54
REMARK   22  A    between atoms: _53  and  _56
REMARK   23  A    between atoms: _56  and  _57
REMARK   24  A    between atoms: _60  and  _62
REMARK   25  A    between atoms: _62  and  _63
REMARK   26  A    between atoms: _62  and  _65
REMARK   27  A    between atoms: _65  and  _66
REMARK   28  A    between atoms: _70  and  _71
REMARK   29  A    between atoms: _76  and  _78
REMARK   30  A    between atoms: _78  and  _79
REMARK   31  A    between atoms: _82  and  _84
REMARK   32  A    between atoms: _84  and  _85
REMARK   33  A    between atoms: _84  and  _87
REMARK   34  A    between atoms: _87  and  _88
REMARK   35  A    between atoms: _93  and  _94
REMARK   36  A    between atoms: _96  and  _98
REMARK   37  A    between atoms: _98  and  _99
REMARK   38  A    between atoms: _98  and  _101
REMARK   39  A    between atoms: _101  and  _102
REMARK   40  A    between atoms: _102  and  _103
REMARK   41  A    between atoms: _106  and  _108
REMARK   42  A    between atoms: _108  and  _109
REMARK   43  A    between atoms: _112  and  _114
REMARK   44  A    between atoms: _114  and  _115
REMARK   45  A    between atoms: _114  and  _117
REMARK   46  A    between atoms: _117  and  _118
REMARK   47  A    between atoms: _118  and  _119
REMARK   48  A    between atoms: _122  and  _124
REMARK   49  A    between atoms: _124  and  _125
REMARK   50  A    between atoms: _127  and  _129
REMARK   51  A    between atoms: _129  and  _130
REMARK   52  A    between atoms: _129  and  _132
REMARK   53  A    between atoms: _132  and  _133
REMARK   54  A    between atoms: _138  and  _140
REMARK   55  A    between atoms: _140  and  _141
REMARK   56  A    between atoms: _140  and  _143
REMARK   57  A    between atoms: _143  and  _144
REMARK   58  A    between atoms: _144  and  _145
REMARK   59  A    between atoms: _150  and  _152
REMARK   60  A    between atoms: _152  and  _153
REMARK   61  A    between atoms: _156  and  _158
REMARK   62  A    between atoms: _158  and  _159
REMARK   63  A    between atoms: _158  and  _161
REMARK   64  A    between atoms: _161  and  _162
REMARK   65  A    between atoms: _162  and  _163
REMARK   66  A    between atoms: _163  and  _164
REMARK   67  A    between atoms: _173  and  _175
REMARK   68  A    between atoms: _175  and  _176
REMARK   69  A    between atoms: _179  and  _181
REMARK   70  A    between atoms: _181  and  _182
REMARK   71  A    between atoms: _185  and  _187
REMARK   72  A    between atoms: _187  and  _188
REMARK   73  A    between atoms: _187  and  _190
REMARK   74  A    between atoms: _190  and  _191
REMARK   75  A    between atoms: _193  and  _195
REMARK   76  A    between atoms: _195  and  _196
REMARK   77  A    between atoms: _195  and  _198
REMARK   78  A    between atoms: _201  and  _203
REMARK   79  A    between atoms: _203  and  _204
REMARK   80  A    between atoms: _203  and  _206
REMARK   81  A    between atoms: _206  and  _207
REMARK   82  A    between atoms: _212  and  _213
REMARK   83  A    between atoms: _215  and  _217
REMARK   84  A    between atoms: _217  and  _218
REMARK   85  A    between atoms: _217  and  _220
REMARK   86  A    between atoms: _220  and  _221
REMARK   87  A    between atoms: _224  and  _226
REMARK   88  A    between atoms: _226  and  _227
REMARK   89  A    between atoms: _226  and  _229
REMARK   90  A    between atoms: _229  and  _230
REMARK   91  A    between atoms: _234  and  _235
REMARK   92  A    between atoms: _240  and  _242
REMARK   93  A    between atoms: _242  and  _243
REMARK   94  A    between atoms: _242  and  _245
REMARK   95  A    between atoms: _245  and  _246
REMARK   96  A    between atoms: _251  and  _252
REMARK   97  A    between atoms: _254  and  _256
REMARK   98  A    between atoms: _256  and  _257
REMARK   99  A    between atoms: _256  and  _259
REMARK  100  A    between atoms: _262  and  _264
REMARK  101  A    between atoms: _264  and  _265
REMARK  102  A    between atoms: _268  and  _270
REMARK  103  A    between atoms: _270  and  _271
REMARK  104  A    between atoms: _270  and  _273
REMARK  105  A    between atoms: _273  and  _274
REMARK  106  A    between atoms: _274  and  _275
REMARK  107  A    between atoms: _278  and  _280
REMARK  108  A    between atoms: _280  and  _281
REMARK  109  A    between atoms: _283  and  _285
REMARK  110  A    between atoms: _285  and  _286
REMARK  111  A    between atoms: _285  and  _288
REMARK  112  A    between atoms: _288  and  _289
REMARK  113  A    between atoms: _294  and  _295
REMARK  114  A    between atoms: _297  and  _299
REMARK  115  A    between atoms: _299  and  _300
REMARK  116  A    between atoms: _299  and  _302
REMARK  117  A    between atoms: _304  and  _306
REMARK  118  A    between atoms: _306  and  _307
REMARK                            x       y       z     vdW  Elec       q    Type
REMARK                         _______ _______ _______ _____ _____    ______ ____
ROOT
ATOM      1  CA  GLU A   3      17.647  32.061   7.216  0.00  0.00    +0.149 C 
ENDROOT
BRANCH   1   4
ATOM      2  C   ALA A   2      17.557  33.650   9.092  0.00  0.00    +0.241 C 
ATOM      3  O   ALA A   2      16.606  34.269   8.618  0.00  0.00    -0.273 OA
ATOM      4  N   GLU A   3      18.126  32.605   8.489  0.00  0.00    -0.297 N 
ATOM      5  H   GLU A   3      18.947  32.156   8.943  0.00  0.00    +0.150 HD
BRANCH   2   6
ATOM      6  CA  ALA A   2      18.146  34.058  10.443  0.00  0.00    +0.149 C 
ATOM      7  CB  ALA A   2      17.722  33.049  11.522  0.00  0.00    +0.031 C 
BRANCH   6   9
ATOM      8  C   VAL A   1      18.529  36.484  10.639  0.00  0.00    +0.238 C 
ATOM      9  N   ALA A   2      17.749  35.414  10.823  0.00  0.00    -0.297 N 
ATOM     10  H   ALA A   2      16.814  35.552  11.258  0.00  0.00    +0.150 HD
ATOM     11  O   VAL A   1      19.683  36.417  10.215  0.00  0.00    -0.274 OA
BRANCH   8  12
ATOM     12  CA  VAL A   1      17.938  37.824  11.053  0.00  0.00    +0.145 C 
BRANCH  12  13
ATOM     13  CB  VAL A   1      17.218  38.498   9.852  0.00  0.00    +0.025 C 
ATOM     14  CG2 VAL A   1      15.982  37.709   9.440  0.00  0.00    +0.002 C 
ATOM     15  CG1 VAL A   1      18.165  38.671   8.668  0.00  0.00    +0.002 C 
ENDBRANCH  12  13
BRANCH  12  16
ATOM     16  N   VAL A   1      18.970  38.701  11.597  0.00  0.00    -0.238 NA
ATOM     17  H   VAL A   1      19.972  38.530  11.376  0.00  0.00    +0.142 HD
ENDBRANCH  12  16
ENDBRANCH   8  12
ENDBRANCH   6   9
ENDBRANCH   2   6
ENDBRANCH   1   4
BRANCH   1  18
ATOM     18  C   GLU A   3      16.141  31.838   7.235  0.00  0.00    +0.241 C 
ATOM     19  O   GLU A   3      15.603  31.312   8.209  0.00  0.00    -0.273 OA
ATOM     20  N   GLY A   4      15.469  32.266   6.170  0.00  0.00    -0.295 N 
ATOM     21  H   GLY A   4      15.982  32.779   5.425  0.00  0.00    +0.150 HD
BRANCH  20  22
ATOM     22  CA  GLY A   4      14.041  32.040   6.013  0.00  0.00    +0.176 C 
BRANCH  22  23
ATOM     23  C   GLY A   4      13.157  33.134   6.591  0.00  0.00    +0.243 C 
ATOM     24  N   TYR A   5      13.767  34.126   7.229  0.00  0.00    -0.298 N 
ATOM     25  H   TYR A   5      14.804  34.121   7.306  0.00  0.00    +0.150 HD
ATOM     26  O   GLY A   4      11.937  33.074   6.475  0.00  0.00    -0.273 OA
BRANCH  24  27
ATOM     27  CA  TYR A   5      13.012  35.222   7.824  0.00  0.00    +0.141 C 
BRANCH  27  28
ATOM     28  C   TYR A   5      13.365  36.539   7.133  0.00  0.00    +0.227 C 
ATOM     29  O   TYR A   5      14.040  36.537   6.106  0.00  0.00    -0.286 OA
ENDBRANCH  27  28
BRANCH  27  30
ATOM     30  CB  TYR A   5      13.269  35.278   9.341  0.00  0.00    +0.054 C 
BRANCH  30  31
ATOM     31  CG  TYR A   5      12.776  34.022  10.014  0.00  0.00    -0.020 A 
ATOM     32  CD2 TYR A   5      13.651  32.984  10.324  0.00  0.00    -0.001 A 
ATOM     33  CE2 TYR A   5      13.193  31.816  10.909  0.00  0.00    +0.036 A 
ATOM     34  CZ  TYR A   5      11.841  31.675  11.185  0.00  0.00    +0.134 A 
ATOM     35  CE1 TYR A   5      10.956  32.691  10.873  0.00  0.00    +0.036 A 
ATOM     36  CD1 TYR A   5      11.427  33.849  10.286  0.00  0.00    -0.001 A 
BRANCH  34  37
ATOM     37  OH  TYR A   5      11.371  30.515  11.765  0.00  0.00    -0.506 OA
ATOM     38  HH  TYR A   5      10.391  30.584  11.891  0.00  0.00    +0.292 HD
ENDBRANCH  34  37
ENDBRANCH  30  31
ENDBRANCH  27  30
ENDBRANCH  24  27
ENDBRANCH  22  23
ENDBRANCH  20  22
ENDBRANCH   1  18
BRANCH   1  39
ATOM     39  CB  GLU A   3      18.347  30.728   6.884  0.00  0.00    +0.041 C 
BRANCH  39  40
ATOM     40  CG  GLU A   3      17.861  30.077   5.580  0.00  0.00    +0.116 C 
BRANCH  40  41
ATOM     41  CD  GLU A   3      18.506  28.717   5.300  0.00  0.00    +0.365 C 
ATOM     42  OE2 GLU A   3      19.078  28.107   6.229  0.00  0.00    -0.246 OA
ATOM     43  OE1 GLU A   3      18.451  28.263   4.140  0.00  0.00    -0.246 OA
ENDBRANCH  40  41
ENDBRANCH  39  40
ENDBRANCH   1  39
TORSDOF 17
REMARK  Name = ../refined-set-2016/4nbk/4nbk_pocket.pdb
REMARK  118 active torsions:
REMARK  status: ('A' for Active; 'I' for Inactive)
REMARK    1  A    between atoms: _1  and  _3
REMARK    2  A    between atoms: _3  and  _4
REMARK    3  A    between atoms: _6  and  _8
REMARK    4  A    between atoms: _8  and  _9
REMARK    5  A    between atoms: _8  and  _11
REMARK    6  A    between atoms: _11  and  _12
REMARK    7  A    between atoms: _17  and  _19
REMARK    8  A    between atoms: _19  and  _20
REMARK    9  A    between atoms: _19  and  _22
REMARK   10  A    between atoms: _22  and  _23
REMARK   11  A    between atoms: _23  and  _24
REMARK   12  A    between atoms: _29  and  _31
REMARK   13  A    between atoms: _31  and  _32
REMARK   14  A    between atoms: _31  and  _34
REMARK   15  A    between atoms: _37  and  _39
REMARK   16  A    between atoms: _39  and  _40
REMARK   17  A    between atoms: _39  and  _42
REMARK   18  A    between atoms: _42  and  _43
REMARK   19  A    between atoms: _48  and  _49
REMARK   20  A    between atoms: _51  and  _53
REMARK   21  A    between atoms: _53  and  _54
REMARK   22  A    between atoms: _53  and  _56
REMARK   23  A    between atoms: _56  and  _57
REMARK   24  A    between atoms: _60  and  _62
REMARK   25  A    between atoms: _62  and  _63
REMARK   26  A    between atoms: _62  and  _65
REMARK   27  A    between atoms: _65  and  _66
REMARK   28  A    between atoms: _70  and  _71
REMARK   29  A    between atoms: _76  and  _78
REMARK   30  A    between atoms: _78  and  _79
REMARK   31  A    between atoms: _82  and  _84
REMARK   32  A    between atoms: _84  and  _85
REMARK   33  A    between atoms: _84  and  _87
REMARK   34  A    between atoms: _87  and  _88
REMARK   35  A    between atoms: _93  and  _94
REMARK   36  A    between atoms: _96  and  _98
REMARK   37  A    between atoms: _98  and  _99
REMARK   38  A    between atoms: _98  and  _101
REMARK   39  A    between atoms: _101  and  _102
REMARK   40  A    between atoms: _102  and  _103
REMARK   41  A    between atoms: _106  and  _108
REMARK   42  A    between atoms: _108  and  _109
REMARK   43  A    between atoms: _112  and  _114
REMARK   44  A    between atoms: _114  and  _115
REMARK   45  A    between atoms: _114  and  _117
REMARK   46  A    between atoms: _117  and  _118
REMARK   47  A    between atoms: _118  and  _119
REMARK   48  A    between atoms: _122  and  _124
REMARK   49  A    between atoms: _124  and  _125
REMARK   50  A    between atoms: _127  and  _129
REMARK   51  A    between atoms: _129  and  _130
REMARK   52  A    between atoms: _129  and  _132
REMARK   53  A    between atoms: _132  and  _133
REMARK   54  A    between atoms: _138  and  _140
REMARK   55  A    between atoms: _140  and  _141
REMARK   56  A    between atoms: _140  and  _143
REMARK   57  A    between atoms: _143  and  _144
REMARK   58  A    between atoms: _144  and  _145
REMARK   59  A    between atoms: _150  and  _152
REMARK   60  A    between atoms: _152  and  _153
REMARK   61  A    between atoms: _156  and  _158
REMARK   62  A    between atoms: _158  and  _159
REMARK   63  A    between atoms: _158  and  _161
REMARK   64  A    between atoms: _161  and  _162
REMARK   65  A    between atoms: _162  and  _163
REMARK   66  A    between atoms: _163  and  _164
REMARK   67  A    between atoms: _173  and  _175
REMARK   68  A    between atoms: _175  and  _176
REMARK   69  A    between atoms: _179  and  _181
REMARK   70  A    between atoms: _181  and  _182
REMARK   71  A    between atoms: _185  and  _187
REMARK   72  A    between atoms: _187  and  _188
REMARK   73  A    between atoms: _187  and  _190
REMARK   74  A    between atoms: _190  and  _191
REMARK   75  A    between atoms: _193  and  _195
REMARK   76  A    between atoms: _195  and  _196
REMARK   77  A    between atoms: _195  and  _198
REMARK   78  A    between atoms: _201  and  _203
REMARK   79  A    between atoms: _203  and  _204
REMARK   80  A    between atoms: _203  and  _206
REMARK   81  A    between atoms: _206  and  _207
REMARK   82  A    between atoms: _212  and  _213
REMARK   83  A    between atoms: _215  and  _217
REMARK   84  A    between atoms: _217  and  _218
REMARK   85  A    between atoms: _217  and  _220
REMARK   86  A    between atoms: _220  and  _221
REMARK   87  A    between atoms: _224  and  _226
REMARK   88  A    between atoms: _226  and  _227
REMARK   89  A    between atoms: _226  and  _229
REMARK   90  A    between atoms: _229  and  _230
REMARK   91  A    between atoms: _234  and  _235
REMARK   92  A    between atoms: _240  and  _242
REMARK   93  A    between atoms: _242  and  _243
REMARK   94  A    between atoms: _242  and  _245
REMARK   95  A    between atoms: _245  and  _246
REMARK   96  A    between atoms: _251  and  _252
REMARK   97  A    between atoms: _254  and  _256
REMARK   98  A    between atoms: _256  and  _257
REMARK   99  A    between atoms: _256  and  _259
REMARK  100  A    between atoms: _262  and  _264
REMARK  101  A    between atoms: _264  and  _265
REMARK  102  A    between atoms: _268  and  _270
REMARK  103  A    between atoms: _270  and  _271
REMARK  104  A    between atoms: _270  and  _273
REMARK  105  A    between atoms: _273  and  _274
REMARK  106  A    between atoms: _274  and  _275
REMARK  107  A    between atoms: _278  and  _280
REMARK  108  A    between atoms: _280  and  _281
REMARK  109  A    between atoms: _283  and  _285
REMARK  110  A    between atoms: _285  and  _286
REMARK  111  A    between atoms: _285  and  _288
REMARK  112  A    between atoms: _288  and  _289
REMARK  113  A    between atoms: _294  and  _295
REMARK  114  A    between atoms: _297  and  _299
REMARK  115  A    between atoms: _299  and  _300
REMARK  116  A    between atoms: _299  and  _302
REMARK  117  A    between atoms: _304  and  _306
REMARK  118  A    between atoms: _306  and  _307
REMARK                            x       y       z     vdW  Elec       q    Type
REMARK                         _______ _______ _______ _____ _____    ______ ____
ROOT
ATOM      1  CA  CYS A   1      20.101  34.939  16.274  0.00  0.00    +0.145 C 
ENDROOT
BRANCH   1   2
ATOM      2  N   CYS A   1      19.395  35.999  15.575  0.00  0.00    -0.238 NA
ATOM      3  H   CYS A   1      19.930  36.758  15.107  0.00  0.00    +0.142 HD
ENDBRANCH   1   2
BRANCH   1   4
ATOM      4  C   CYS A   1      21.509  35.380  16.620  0.00  0.00    +0.225 C 
ATOM      5  O   CYS A   1      22.009  36.361  16.084  0.00  0.00    -0.287 OA
ENDBRANCH   1   4
BRANCH   1   6
ATOM      6  CB  CYS A   1      20.139  33.684  15.431  0.00  0.00    +0.094 C 
ATOM      7  SG  CYS A   1      21.144  33.853  13.998  0.00  0.00    -0.080 S 
ENDBRANCH   1   6
TORSDOF 3
REMARK  Name = ../refined-set-2016/4nbk/4nbk_pocket.pdb
REMARK  118 active torsions:
REMARK  status: ('A' for Active; 'I' for Inactive)
REMARK    1  A    between atoms: _1  and  _3
REMARK    2  A    between atoms: _3  and  _4
REMARK    3  A    between atoms: _6  and  _8
REMARK    4  A    between atoms: _8  and  _9
REMARK    5  A    between atoms: _8  and  _11
REMARK    6  A    between atoms: _11  and  _12
REMARK    7  A    between atoms: _17  and  _19
REMARK    8  A    between atoms: _19  and  _20
REMARK    9  A    between atoms: _19  and  _22
REMARK   10  A    between atoms: _22  and  _23
REMARK   11  A    between atoms: _23  and  _24
REMARK   12  A    between atoms: _29  and  _31
REMARK   13  A    between atoms: _31  and  _32
REMARK   14  A    between atoms: _31  and  _34
REMARK   15  A    between atoms: _37  and  _39
REMARK   16  A    between atoms: _39  and  _40
REMARK   17  A    between atoms: _39  and  _42
REMARK   18  A    between atoms: _42  and  _43
REMARK   19  A    between atoms: _48  and  _49
REMARK   20  A    between atoms: _51  and  _53
REMARK   21  A    between atoms: _53  and  _54
REMARK   22  A    between atoms: _53  and  _56
REMARK   23  A    between atoms: _56  and  _57
REMARK   24  A    between atoms: _60  and  _62
REMARK   25  A    between atoms: _62  and  _63
REMARK   26  A    between atoms: _62  and  _65
REMARK   27  A    between atoms: _65  and  _66
REMARK   28  A    between atoms: _70  and  _71
REMARK   29  A    between atoms: _76  and  _78
REMARK   30  A    between atoms: _78  and  _79
REMARK   31  A    between atoms: _82  and  _84
REMARK   32  A    between atoms: _84  and  _85
REMARK   33  A    between atoms: _84  and  _87
REMARK   34  A    between atoms: _87  and  _88
REMARK   35  A    between atoms: _93  and  _94
REMARK   36  A    between atoms: _96  and  _98
REMARK   37  A    between atoms: _98  and  _99
REMARK   38  A    between atoms: _98  and  _101
REMARK   39  A    between atoms: _101  and  _102
REMARK   40  A    between atoms: _102  and  _103
REMARK   41  A    between atoms: _106  and  _108
REMARK   42  A    between atoms: _108  and  _109
REMARK   43  A    between atoms: _112  and  _114
REMARK   44  A    between atoms: _114  and  _115
REMARK   45  A    between atoms: _114  and  _117
REMARK   46  A    between atoms: _117  and  _118
REMARK   47  A    between atoms: _118  and  _119
REMARK   48  A    between atoms: _122  and  _124
REMARK   49  A    between atoms: _124  and  _125
REMARK   50  A    between atoms: _127  and  _129
REMARK   51  A    between atoms: _129  and  _130
REMARK   52  A    between atoms: _129  and  _132
REMARK   53  A    between atoms: _132  and  _133
REMARK   54  A    between atoms: _138  and  _140
REMARK   55  A    between atoms: _140  and  _141
REMARK   56  A    between atoms: _140  and  _143
REMARK   57  A    between atoms: _143  and  _144
REMARK   58  A    between atoms: _144  and  _145
REMARK   59  A    between atoms: _150  and  _152
REMARK   60  A    between atoms: _152  and  _153
REMARK   61  A    between atoms: _156  and  _158
REMARK   62  A    between atoms: _158  and  _159
REMARK   63  A    between atoms: _158  and  _161
REMARK   64  A    between atoms: _161  and  _162
REMARK   65  A    between atoms: _162  and  _163
REMARK   66  A    between atoms: _163  and  _164
REMARK   67  A    between atoms: _173  and  _175
REMARK   68  A    between atoms: _175  and  _176
REMARK   69  A    between atoms: _179  and  _181
REMARK   70  A    between atoms: _181  and  _182
REMARK   71  A    between atoms: _185  and  _187
REMARK   72  A    between atoms: _187  and  _188
REMARK   73  A    between atoms: _187  and  _190
REMARK   74  A    between atoms: _190  and  _191
REMARK   75  A    between atoms: _193  and  _195
REMARK   76  A    between atoms: _195  and  _196
REMARK   77  A    between atoms: _195  and  _198
REMARK   78  A    between atoms: _201  and  _203
REMARK   79  A    between atoms: _203  and  _204
REMARK   80  A    between atoms: _203  and  _206
REMARK   81  A    between atoms: _206  and  _207
REMARK   82  A    between atoms: _212  and  _213
REMARK   83  A    between atoms: _215  and  _217
REMARK   84  A    between atoms: _217  and  _218
REMARK   85  A    between atoms: _217  and  _220
REMARK   86  A    between atoms: _220  and  _221
REMARK   87  A    between atoms: _224  and  _226
REMARK   88  A    between atoms: _226  and  _227
REMARK   89  A    between atoms: _226  and  _229
REMARK   90  A    between atoms: _229  and  _230
REMARK   91  A    between atoms: _234  and  _235
REMARK   92  A    between atoms: _240  and  _242
REMARK   93  A    between atoms: _242  and  _243
REMARK   94  A    between atoms: _242  and  _245
REMARK   95  A    between atoms: _245  and  _246
REMARK   96  A    between atoms: _251  and  _252
REMARK   97  A    between atoms: _254  and  _256
REMARK   98  A    between atoms: _256  and  _257
REMARK   99  A    between atoms: _256  and  _259
REMARK  100  A    between atoms: _262  and  _264
REMARK  101  A    between atoms: _264  and  _265
REMARK  102  A    between atoms: _268  and  _270
REMARK  103  A    between atoms: _270  and  _271
REMARK  104  A    between atoms: _270  and  _273
REMARK  105  A    between atoms: _273  and  _274
REMARK  106  A    between atoms: _274  and  _275
REMARK  107  A    between atoms: _278  and  _280
REMARK  108  A    between atoms: _280  and  _281
REMARK  109  A    between atoms: _283  and  _285
REMARK  110  A    between atoms: _285  and  _286
REMARK  111  A    between atoms: _285  and  _288
REMARK  112  A    between atoms: _288  and  _289
REMARK  113  A    between atoms: _294  and  _295
REMARK  114  A    between atoms: _297  and  _299
REMARK  115  A    between atoms: _299  and  _300
REMARK  116  A    between atoms: _299  and  _302
REMARK  117  A    between atoms: _304  and  _306
REMARK  118  A    between atoms: _306  and  _307
REMARK                            x       y       z     vdW  Elec       q    Type
REMARK                         _______ _______ _______ _____ _____    ______ ____
ROOT
ATOM      1  CA  ALA A   1      26.325  32.349  17.369  0.00  0.00    +0.133 C 
ATOM      2  CB  ALA A   1      26.906  32.026  15.993  0.00  0.00    +0.027 C 
ENDROOT
BRANCH   1   3
ATOM      3  N   ALA A   1      25.489  33.536  17.311  0.00  0.00    -0.239 NA
ATOM      4  H   ALA A   1      25.859  34.391  16.849  0.00  0.00    +0.142 HD
ENDBRANCH   1   3
BRANCH   1   5
ATOM      5  C   ALA A   1      27.425  32.619  18.377  0.00  0.00    +0.224 C 
ATOM      6  O   ALA A   1      28.256  33.500  18.158  0.00  0.00    -0.287 OA
ENDBRANCH   1   5
TORSDOF 2
REMARK  Name = ../refined-set-2016/4nbk/4nbk_pocket.pdb
REMARK  118 active torsions:
REMARK  status: ('A' for Active; 'I' for Inactive)
REMARK    1  A    between atoms: _1  and  _3
REMARK    2  A    between atoms: _3  and  _4
REMARK    3  A    between atoms: _6  and  _8
REMARK    4  A    between atoms: _8  and  _9
REMARK    5  A    between atoms: _8  and  _11
REMARK    6  A    between atoms: _11  and  _12
REMARK    7  A    between atoms: _17  and  _19
REMARK    8  A    between atoms: _19  and  _20
REMARK    9  A    between atoms: _19  and  _22
REMARK   10  A    between atoms: _22  and  _23
REMARK   11  A    between atoms: _23  and  _24
REMARK   12  A    between atoms: _29  and  _31
REMARK   13  A    between atoms: _31  and  _32
REMARK   14  A    between atoms: _31  and  _34
REMARK   15  A    between atoms: _37  and  _39
REMARK   16  A    between atoms: _39  and  _40
REMARK   17  A    between atoms: _39  and  _42
REMARK   18  A    between atoms: _42  and  _43
REMARK   19  A    between atoms: _48  and  _49
REMARK   20  A    between atoms: _51  and  _53
REMARK   21  A    between atoms: _53  and  _54
REMARK   22  A    between atoms: _53  and  _56
REMARK   23  A    between atoms: _56  and  _57
REMARK   24  A    between atoms: _60  and  _62
REMARK   25  A    between atoms: _62  and  _63
REMARK   26  A    between atoms: _62  and  _65
REMARK   27  A    between atoms: _65  and  _66
REMARK   28  A    between atoms: _70  and  _71
REMARK   29  A    between atoms: _76  and  _78
REMARK   30  A    between atoms: _78  and  _79
REMARK   31  A    between atoms: _82  and  _84
REMARK   32  A    between atoms: _84  and  _85
REMARK   33  A    between atoms: _84  and  _87
REMARK   34  A    between atoms: _87  and  _88
REMARK   35  A    between atoms: _93  and  _94
REMARK   36  A    between atoms: _96  and  _98
REMARK   37  A    between atoms: _98  and  _99
REMARK   38  A    between atoms: _98  and  _101
REMARK   39  A    between atoms: _101  and  _102
REMARK   40  A    between atoms: _102  and  _103
REMARK   41  A    between atoms: _106  and  _108
REMARK   42  A    between atoms: _108  and  _109
REMARK   43  A    between atoms: _112  and  _114
REMARK   44  A    between atoms: _114  and  _115
REMARK   45  A    between atoms: _114  and  _117
REMARK   46  A    between atoms: _117  and  _118
REMARK   47  A    between atoms: _118  and  _119
REMARK   48  A    between atoms: _122  and  _124
REMARK   49  A    between atoms: _124  and  _125
REMARK   50  A    between atoms: _127  and  _129
REMARK   51  A    between atoms: _129  and  _130
REMARK   52  A    between atoms: _129  and  _132
REMARK   53  A    between atoms: _132  and  _133
REMARK   54  A    between atoms: _138  and  _140
REMARK   55  A    between atoms: _140  and  _141
REMARK   56  A    between atoms: _140  and  _143
REMARK   57  A    between atoms: _143  and  _144
REMARK   58  A    between atoms: _144  and  _145
REMARK   59  A    between atoms: _150  and  _152
REMARK   60  A    between atoms: _152  and  _153
REMARK   61  A    between atoms: _156  and  _158
REMARK   62  A    between atoms: _158  and  _159
REMARK   63  A    between atoms: _158  and  _161
REMARK   64  A    between atoms: _161  and  _162
REMARK   65  A    between atoms: _162  and  _163
REMARK   66  A    between atoms: _163  and  _164
REMARK   67  A    between atoms: _173  and  _175
REMARK   68  A    between atoms: _175  and  _176
REMARK   69  A    between atoms: _179  and  _181
REMARK   70  A    between atoms: _181  and  _182
REMARK   71  A    between atoms: _185  and  _187
REMARK   72  A    between atoms: _187  and  _188
REMARK   73  A    between atoms: _187  and  _190
REMARK   74  A    between atoms: _190  and  _191
REMARK   75  A    between atoms: _193  and  _195
REMARK   76  A    between atoms: _195  and  _196
REMARK   77  A    between atoms: _195  and  _198
REMARK   78  A    between atoms: _201  and  _203
REMARK   79  A    between atoms: _203  and  _204
REMARK   80  A    between atoms: _203  and  _206
REMARK   81  A    between atoms: _206  and  _207
REMARK   82  A    between atoms: _212  and  _213
REMARK   83  A    between atoms: _215  and  _217
REMARK   84  A    between atoms: _217  and  _218
REMARK   85  A    between atoms: _217  and  _220
REMARK   86  A    between atoms: _220  and  _221
REMARK   87  A    between atoms: _224  and  _226
REMARK   88  A    between atoms: _226  and  _227
REMARK   89  A    between atoms: _226  and  _229
REMARK   90  A    between atoms: _229  and  _230
REMARK   91  A    between atoms: _234  and  _235
REMARK   92  A    between atoms: _240  and  _242
REMARK   93  A    between atoms: _242  and  _243
REMARK   94  A    between atoms: _242  and  _245
REMARK   95  A    between atoms: _245  and  _246
REMARK   96  A    between atoms: _251  and  _252
REMARK   97  A    between atoms: _254  and  _256
REMARK   98  A    between atoms: _256  and  _257
REMARK   99  A    between atoms: _256  and  _259
REMARK  100  A    between atoms: _262  and  _264
REMARK  101  A    between atoms: _264  and  _265
REMARK  102  A    between atoms: _268  and  _270
REMARK  103  A    between atoms: _270  and  _271
REMARK  104  A    between atoms: _270  and  _273
REMARK  105  A    between atoms: _273  and  _274
REMARK  106  A    between atoms: _274  and  _275
REMARK  107  A    between atoms: _278  and  _280
REMARK  108  A    between atoms: _280  and  _281
REMARK  109  A    between atoms: _283  and  _285
REMARK  110  A    between atoms: _285  and  _286
REMARK  111  A    between atoms: _285  and  _288
REMARK  112  A    between atoms: _288  and  _289
REMARK  113  A    between atoms: _294  and  _295
REMARK  114  A    between atoms: _297  and  _299
REMARK  115  A    between atoms: _299  and  _300
REMARK  116  A    between atoms: _299  and  _302
REMARK  117  A    between atoms: _304  and  _306
REMARK  118  A    between atoms: _306  and  _307
REMARK                            x       y       z     vdW  Elec       q    Type
REMARK                         _______ _______ _______ _____ _____    ______ ____
ROOT
ATOM      1  O   HOH     1      25.594  21.904   1.410  0.00  0.00    +0.000 OA
ENDROOT
TORSDOF 0
REMARK  Name = ../refined-set-2016/4nbk/4nbk_pocket.pdb
REMARK  118 active torsions:
REMARK  status: ('A' for Active; 'I' for Inactive)
REMARK    1  A    between atoms: _1  and  _3
REMARK    2  A    between atoms: _3  and  _4
REMARK    3  A    between atoms: _6  and  _8
REMARK    4  A    between atoms: _8  and  _9
REMARK    5  A    between atoms: _8  and  _11
REMARK    6  A    between atoms: _11  and  _12
REMARK    7  A    between atoms: _17  and  _19
REMARK    8  A    between atoms: _19  and  _20
REMARK    9  A    between atoms: _19  and  _22
REMARK   10  A    between atoms: _22  and  _23
REMARK   11  A    between atoms: _23  and  _24
REMARK   12  A    between atoms: _29  and  _31
REMARK   13  A    between atoms: _31  and  _32
REMARK   14  A    between atoms: _31  and  _34
REMARK   15  A    between atoms: _37  and  _39
REMARK   16  A    between atoms: _39  and  _40
REMARK   17  A    between atoms: _39  and  _42
REMARK   18  A    between atoms: _42  and  _43
REMARK   19  A    between atoms: _48  and  _49
REMARK   20  A    between atoms: _51  and  _53
REMARK   21  A    between atoms: _53  and  _54
REMARK   22  A    between atoms: _53  and  _56
REMARK   23  A    between atoms: _56  and  _57
REMARK   24  A    between atoms: _60  and  _62
REMARK   25  A    between atoms: _62  and  _63
REMARK   26  A    between atoms: _62  and  _65
REMARK   27  A    between atoms: _65  and  _66
REMARK   28  A    between atoms: _70  and  _71
REMARK   29  A    between atoms: _76  and  _78
REMARK   30  A    between atoms: _78  and  _79
REMARK   31  A    between atoms: _82  and  _84
REMARK   32  A    between atoms: _84  and  _85
REMARK   33  A    between atoms: _84  and  _87
REMARK   34  A    between atoms: _87  and  _88
REMARK   35  A    between atoms: _93  and  _94
REMARK   36  A    between atoms: _96  and  _98
REMARK   37  A    between atoms: _98  and  _99
REMARK   38  A    between atoms: _98  and  _101
REMARK   39  A    between atoms: _101  and  _102
REMARK   40  A    between atoms: _102  and  _103
REMARK   41  A    between atoms: _106  and  _108
REMARK   42  A    between atoms: _108  and  _109
REMARK   43  A    between atoms: _112  and  _114
REMARK   44  A    between atoms: _114  and  _115
REMARK   45  A    between atoms: _114  and  _117
REMARK   46  A    between atoms: _117  and  _118
REMARK   47  A    between atoms: _118  and  _119
REMARK   48  A    between atoms: _122  and  _124
REMARK   49  A    between atoms: _124  and  _125
REMARK   50  A    between atoms: _127  and  _129
REMARK   51  A    between atoms: _129  and  _130
REMARK   52  A    between atoms: _129  and  _132
REMARK   53  A    between atoms: _132  and  _133
REMARK   54  A    between atoms: _138  and  _140
REMARK   55  A    between atoms: _140  and  _141
REMARK   56  A    between atoms: _140  and  _143
REMARK   57  A    between atoms: _143  and  _144
REMARK   58  A    between atoms: _144  and  _145
REMARK   59  A    between atoms: _150  and  _152
REMARK   60  A    between atoms: _152  and  _153
REMARK   61  A    between atoms: _156  and  _158
REMARK   62  A    between atoms: _158  and  _159
REMARK   63  A    between atoms: _158  and  _161
REMARK   64  A    between atoms: _161  and  _162
REMARK   65  A    between atoms: _162  and  _163
REMARK   66  A    between atoms: _163  and  _164
REMARK   67  A    between atoms: _173  and  _175
REMARK   68  A    between atoms: _175  and  _176
REMARK   69  A    between atoms: _179  and  _181
REMARK   70  A    between atoms: _181  and  _182
REMARK   71  A    between atoms: _185  and  _187
REMARK   72  A    between atoms: _187  and  _188
REMARK   73  A    between atoms: _187  and  _190
REMARK   74  A    between atoms: _190  and  _191
REMARK   75  A    between atoms: _193  and  _195
REMARK   76  A    between atoms: _195  and  _196
REMARK   77  A    between atoms: _195  and  _198
REMARK   78  A    between atoms: _201  and  _203
REMARK   79  A    between atoms: _203  and  _204
REMARK   80  A    between atoms: _203  and  _206
REMARK   81  A    between atoms: _206  and  _207
REMARK   82  A    between atoms: _212  and  _213
REMARK   83  A    between atoms: _215  and  _217
REMARK   84  A    between atoms: _217  and  _218
REMARK   85  A    between atoms: _217  and  _220
REMARK   86  A    between atoms: _220  and  _221
REMARK   87  A    between atoms: _224  and  _226
REMARK   88  A    between atoms: _226  and  _227
REMARK   89  A    between atoms: _226  and  _229
REMARK   90  A    between atoms: _229  and  _230
REMARK   91  A    between atoms: _234  and  _235
REMARK   92  A    between atoms: _240  and  _242
REMARK   93  A    between atoms: _242  and  _243
REMARK   94  A    between atoms: _242  and  _245
REMARK   95  A    between atoms: _245  and  _246
REMARK   96  A    between atoms: _251  and  _252
REMARK   97  A    between atoms: _254  and  _256
REMARK   98  A    between atoms: _256  and  _257
REMARK   99  A    between atoms: _256  and  _259
REMARK  100  A    between atoms: _262  and  _264
REMARK  101  A    between atoms: _264  and  _265
REMARK  102  A    between atoms: _268  and  _270
REMARK  103  A    between atoms: _270  and  _271
REMARK  104  A    between atoms: _270  and  _273
REMARK  105  A    between atoms: _273  and  _274
REMARK  106  A    between atoms: _274  and  _275
REMARK  107  A    between atoms: _278  and  _280
REMARK  108  A    between atoms: _280  and  _281
REMARK  109  A    between atoms: _283  and  _285
REMARK  110  A    between atoms: _285  and  _286
REMARK  111  A    between atoms: _285  and  _288
REMARK  112  A    between atoms: _288  and  _289
REMARK  113  A    between atoms: _294  and  _295
REMARK  114  A    between atoms: _297  and  _299
REMARK  115  A    between atoms: _299  and  _300
REMARK  116  A    between atoms: _299  and  _302
REMARK  117  A    between atoms: _304  and  _306
REMARK  118  A    between atoms: _306  and  _307
REMARK                            x       y       z     vdW  Elec       q    Type
REMARK                         _______ _______ _______ _____ _____    ______ ____
ROOT
ATOM      1  O   HOH     1      31.768  23.412   4.744  0.00  0.00    +0.000 OA
ENDROOT
TORSDOF 0
REMARK  Name = ../refined-set-2016/4nbk/4nbk_pocket.pdb
REMARK  118 active torsions:
REMARK  status: ('A' for Active; 'I' for Inactive)
REMARK    1  A    between atoms: _1  and  _3
REMARK    2  A    between atoms: _3  and  _4
REMARK    3  A    between atoms: _6  and  _8
REMARK    4  A    between atoms: _8  and  _9
REMARK    5  A    between atoms: _8  and  _11
REMARK    6  A    between atoms: _11  and  _12
REMARK    7  A    between atoms: _17  and  _19
REMARK    8  A    between atoms: _19  and  _20
REMARK    9  A    between atoms: _19  and  _22
REMARK   10  A    between atoms: _22  and  _23
REMARK   11  A    between atoms: _23  and  _24
REMARK   12  A    between atoms: _29  and  _31
REMARK   13  A    between atoms: _31  and  _32
REMARK   14  A    between atoms: _31  and  _34
REMARK   15  A    between atoms: _37  and  _39
REMARK   16  A    between atoms: _39  and  _40
REMARK   17  A    between atoms: _39  and  _42
REMARK   18  A    between atoms: _42  and  _43
REMARK   19  A    between atoms: _48  and  _49
REMARK   20  A    between atoms: _51  and  _53
REMARK   21  A    between atoms: _53  and  _54
REMARK   22  A    between atoms: _53  and  _56
REMARK   23  A    between atoms: _56  and  _57
REMARK   24  A    between atoms: _60  and  _62
REMARK   25  A    between atoms: _62  and  _63
REMARK   26  A    between atoms: _62  and  _65
REMARK   27  A    between atoms: _65  and  _66
REMARK   28  A    between atoms: _70  and  _71
REMARK   29  A    between atoms: _76  and  _78
REMARK   30  A    between atoms: _78  and  _79
REMARK   31  A    between atoms: _82  and  _84
REMARK   32  A    between atoms: _84  and  _85
REMARK   33  A    between atoms: _84  and  _87
REMARK   34  A    between atoms: _87  and  _88
REMARK   35  A    between atoms: _93  and  _94
REMARK   36  A    between atoms: _96  and  _98
REMARK   37  A    between atoms: _98  and  _99
REMARK   38  A    between atoms: _98  and  _101
REMARK   39  A    between atoms: _101  and  _102
REMARK   40  A    between atoms: _102  and  _103
REMARK   41  A    between atoms: _106  and  _108
REMARK   42  A    between atoms: _108  and  _109
REMARK   43  A    between atoms: _112  and  _114
REMARK   44  A    between atoms: _114  and  _115
REMARK   45  A    between atoms: _114  and  _117
REMARK   46  A    between atoms: _117  and  _118
REMARK   47  A    between atoms: _118  and  _119
REMARK   48  A    between atoms: _122  and  _124
REMARK   49  A    between atoms: _124  and  _125
REMARK   50  A    between atoms: _127  and  _129
REMARK   51  A    between atoms: _129  and  _130
REMARK   52  A    between atoms: _129  and  _132
REMARK   53  A    between atoms: _132  and  _133
REMARK   54  A    between atoms: _138  and  _140
REMARK   55  A    between atoms: _140  and  _141
REMARK   56  A    between atoms: _140  and  _143
REMARK   57  A    between atoms: _143  and  _144
REMARK   58  A    between atoms: _144  and  _145
REMARK   59  A    between atoms: _150  and  _152
REMARK   60  A    between atoms: _152  and  _153
REMARK   61  A    between atoms: _156  and  _158
REMARK   62  A    between atoms: _158  and  _159
REMARK   63  A    between atoms: _158  and  _161
REMARK   64  A    between atoms: _161  and  _162
REMARK   65  A    between atoms: _162  and  _163
REMARK   66  A    between atoms: _163  and  _164
REMARK   67  A    between atoms: _173  and  _175
REMARK   68  A    between atoms: _175  and  _176
REMARK   69  A    between atoms: _179  and  _181
REMARK   70  A    between atoms: _181  and  _182
REMARK   71  A    between atoms: _185  and  _187
REMARK   72  A    between atoms: _187  and  _188
REMARK   73  A    between atoms: _187  and  _190
REMARK   74  A    between atoms: _190  and  _191
REMARK   75  A    between atoms: _193  and  _195
REMARK   76  A    between atoms: _195  and  _196
REMARK   77  A    between atoms: _195  and  _198
REMARK   78  A    between atoms: _201  and  _203
REMARK   79  A    between atoms: _203  and  _204
REMARK   80  A    between atoms: _203  and  _206
REMARK   81  A    between atoms: _206  and  _207
REMARK   82  A    between atoms: _212  and  _213
REMARK   83  A    between atoms: _215  and  _217
REMARK   84  A    between atoms: _217  and  _218
REMARK   85  A    between atoms: _217  and  _220
REMARK   86  A    between atoms: _220  and  _221
REMARK   87  A    between atoms: _224  and  _226
REMARK   88  A    between atoms: _226  and  _227
REMARK   89  A    between atoms: _226  and  _229
REMARK   90  A    between atoms: _229  and  _230
REMARK   91  A    between atoms: _234  and  _235
REMARK   92  A    between atoms: _240  and  _242
REMARK   93  A    between atoms: _242  and  _243
REMARK   94  A    between atoms: _242  and  _245
REMARK   95  A    between atoms: _245  and  _246
REMARK   96  A    between atoms: _251  and  _252
REMARK   97  A    between atoms: _254  and  _256
REMARK   98  A    between atoms: _256  and  _257
REMARK   99  A    between atoms: _256  and  _259
REMARK  100  A    between atoms: _262  and  _264
REMARK  101  A    between atoms: _264  and  _265
REMARK  102  A    between atoms: _268  and  _270
REMARK  103  A    between atoms: _270  and  _271
REMARK  104  A    between atoms: _270  and  _273
REMARK  105  A    between atoms: _273  and  _274
REMARK  106  A    between atoms: _274  and  _275
REMARK  107  A    between atoms: _278  and  _280
REMARK  108  A    between atoms: _280  and  _281
REMARK  109  A    between atoms: _283  and  _285
REMARK  110  A    between atoms: _285  and  _286
REMARK  111  A    between atoms: _285  and  _288
REMARK  112  A    between atoms: _288  and  _289
REMARK  113  A    between atoms: _294  and  _295
REMARK  114  A    between atoms: _297  and  _299
REMARK  115  A    between atoms: _299  and  _300
REMARK  116  A    between atoms: _299  and  _302
REMARK  117  A    between atoms: _304  and  _306
REMARK  118  A    between atoms: _306  and  _307
REMARK                            x       y       z     vdW  Elec       q    Type
REMARK                         _______ _______ _______ _____ _____    ______ ____
ROOT
ATOM      1  O   HOH     1      15.024  26.995   6.758  0.00  0.00    +0.000 OA
ENDROOT
TORSDOF 0
REMARK  Name = ../refined-set-2016/4nbk/4nbk_pocket.pdb
REMARK  118 active torsions:
REMARK  status: ('A' for Active; 'I' for Inactive)
REMARK    1  A    between atoms: _1  and  _3
REMARK    2  A    between atoms: _3  and  _4
REMARK    3  A    between atoms: _6  and  _8
REMARK    4  A    between atoms: _8  and  _9
REMARK    5  A    between atoms: _8  and  _11
REMARK    6  A    between atoms: _11  and  _12
REMARK    7  A    between atoms: _17  and  _19
REMARK    8  A    between atoms: _19  and  _20
REMARK    9  A    between atoms: _19  and  _22
REMARK   10  A    between atoms: _22  and  _23
REMARK   11  A    between atoms: _23  and  _24
REMARK   12  A    between atoms: _29  and  _31
REMARK   13  A    between atoms: _31  and  _32
REMARK   14  A    between atoms: _31  and  _34
REMARK   15  A    between atoms: _37  and  _39
REMARK   16  A    between atoms: _39  and  _40
REMARK   17  A    between atoms: _39  and  _42
REMARK   18  A    between atoms: _42  and  _43
REMARK   19  A    between atoms: _48  and  _49
REMARK   20  A    between atoms: _51  and  _53
REMARK   21  A    between atoms: _53  and  _54
REMARK   22  A    between atoms: _53  and  _56
REMARK   23  A    between atoms: _56  and  _57
REMARK   24  A    between atoms: _60  and  _62
REMARK   25  A    between atoms: _62  and  _63
REMARK   26  A    between atoms: _62  and  _65
REMARK   27  A    between atoms: _65  and  _66
REMARK   28  A    between atoms: _70  and  _71
REMARK   29  A    between atoms: _76  and  _78
REMARK   30  A    between atoms: _78  and  _79
REMARK   31  A    between atoms: _82  and  _84
REMARK   32  A    between atoms: _84  and  _85
REMARK   33  A    between atoms: _84  and  _87
REMARK   34  A    between atoms: _87  and  _88
REMARK   35  A    between atoms: _93  and  _94
REMARK   36  A    between atoms: _96  and  _98
REMARK   37  A    between atoms: _98  and  _99
REMARK   38  A    between atoms: _98  and  _101
REMARK   39  A    between atoms: _101  and  _102
REMARK   40  A    between atoms: _102  and  _103
REMARK   41  A    between atoms: _106  and  _108
REMARK   42  A    between atoms: _108  and  _109
REMARK   43  A    between atoms: _112  and  _114
REMARK   44  A    between atoms: _114  and  _115
REMARK   45  A    between atoms: _114  and  _117
REMARK   46  A    between atoms: _117  and  _118
REMARK   47  A    between atoms: _118  and  _119
REMARK   48  A    between atoms: _122  and  _124
REMARK   49  A    between atoms: _124  and  _125
REMARK   50  A    between atoms: _127  and  _129
REMARK   51  A    between atoms: _129  and  _130
REMARK   52  A    between atoms: _129  and  _132
REMARK   53  A    between atoms: _132  and  _133
REMARK   54  A    between atoms: _138  and  _140
REMARK   55  A    between atoms: _140  and  _141
REMARK   56  A    between atoms: _140  and  _143
REMARK   57  A    between atoms: _143  and  _144
REMARK   58  A    between atoms: _144  and  _145
REMARK   59  A    between atoms: _150  and  _152
REMARK   60  A    between atoms: _152  and  _153
REMARK   61  A    between atoms: _156  and  _158
REMARK   62  A    between atoms: _158  and  _159
REMARK   63  A    between atoms: _158  and  _161
REMARK   64  A    between atoms: _161  and  _162
REMARK   65  A    between atoms: _162  and  _163
REMARK   66  A    between atoms: _163  and  _164
REMARK   67  A    between atoms: _173  and  _175
REMARK   68  A    between atoms: _175  and  _176
REMARK   69  A    between atoms: _179  and  _181
REMARK   70  A    between atoms: _181  and  _182
REMARK   71  A    between atoms: _185  and  _187
REMARK   72  A    between atoms: _187  and  _188
REMARK   73  A    between atoms: _187  and  _190
REMARK   74  A    between atoms: _190  and  _191
REMARK   75  A    between atoms: _193  and  _195
REMARK   76  A    between atoms: _195  and  _196
REMARK   77  A    between atoms: _195  and  _198
REMARK   78  A    between atoms: _201  and  _203
REMARK   79  A    between atoms: _203  and  _204
REMARK   80  A    between atoms: _203  and  _206
REMARK   81  A    between atoms: _206  and  _207
REMARK   82  A    between atoms: _212  and  _213
REMARK   83  A    between atoms: _215  and  _217
REMARK   84  A    between atoms: _217  and  _218
REMARK   85  A    between atoms: _217  and  _220
REMARK   86  A    between atoms: _220  and  _221
REMARK   87  A    between atoms: _224  and  _226
REMARK   88  A    between atoms: _226  and  _227
REMARK   89  A    between atoms: _226  and  _229
REMARK   90  A    between atoms: _229  and  _230
REMARK   91  A    between atoms: _234  and  _235
REMARK   92  A    between atoms: _240  and  _242
REMARK   93  A    between atoms: _242  and  _243
REMARK   94  A    between atoms: _242  and  _245
REMARK   95  A    between atoms: _245  and  _246
REMARK   96  A    between atoms: _251  and  _252
REMARK   97  A    between atoms: _254  and  _256
REMARK   98  A    between atoms: _256  and  _257
REMARK   99  A    between atoms: _256  and  _259
REMARK  100  A    between atoms: _262  and  _264
REMARK  101  A    between atoms: _264  and  _265
REMARK  102  A    between atoms: _268  and  _270
REMARK  103  A    between atoms: _270  and  _271
REMARK  104  A    between atoms: _270  and  _273
REMARK  105  A    between atoms: _273  and  _274
REMARK  106  A    between atoms: _274  and  _275
REMARK  107  A    between atoms: _278  and  _280
REMARK  108  A    between atoms: _280  and  _281
REMARK  109  A    between atoms: _283  and  _285
REMARK  110  A    between atoms: _285  and  _286
REMARK  111  A    between atoms: _285  and  _288
REMARK  112  A    between atoms: _288  and  _289
REMARK  113  A    between atoms: _294  and  _295
REMARK  114  A    between atoms: _297  and  _299
REMARK  115  A    between atoms: _299  and  _300
REMARK  116  A    between atoms: _299  and  _302
REMARK  117  A    between atoms: _304  and  _306
REMARK  118  A    between atoms: _306  and  _307
REMARK                            x       y       z     vdW  Elec       q    Type
REMARK                         _______ _______ _______ _____ _____    ______ ____
ROOT
ATOM      1  O   HOH     1      27.889  23.378   0.641  0.00  0.00    +0.000 OA
ENDROOT
TORSDOF 0
REMARK  Name = ../refined-set-2016/4nbk/4nbk_pocket.pdb
REMARK  118 active torsions:
REMARK  status: ('A' for Active; 'I' for Inactive)
REMARK    1  A    between atoms: _1  and  _3
REMARK    2  A    between atoms: _3  and  _4
REMARK    3  A    between atoms: _6  and  _8
REMARK    4  A    between atoms: _8  and  _9
REMARK    5  A    between atoms: _8  and  _11
REMARK    6  A    between atoms: _11  and  _12
REMARK    7  A    between atoms: _17  and  _19
REMARK    8  A    between atoms: _19  and  _20
REMARK    9  A    between atoms: _19  and  _22
REMARK   10  A    between atoms: _22  and  _23
REMARK   11  A    between atoms: _23  and  _24
REMARK   12  A    between atoms: _29  and  _31
REMARK   13  A    between atoms: _31  and  _32
REMARK   14  A    between atoms: _31  and  _34
REMARK   15  A    between atoms: _37  and  _39
REMARK   16  A    between atoms: _39  and  _40
REMARK   17  A    between atoms: _39  and  _42
REMARK   18  A    between atoms: _42  and  _43
REMARK   19  A    between atoms: _48  and  _49
REMARK   20  A    between atoms: _51  and  _53
REMARK   21  A    between atoms: _53  and  _54
REMARK   22  A    between atoms: _53  and  _56
REMARK   23  A    between atoms: _56  and  _57
REMARK   24  A    between atoms: _60  and  _62
REMARK   25  A    between atoms: _62  and  _63
REMARK   26  A    between atoms: _62  and  _65
REMARK   27  A    between atoms: _65  and  _66
REMARK   28  A    between atoms: _70  and  _71
REMARK   29  A    between atoms: _76  and  _78
REMARK   30  A    between atoms: _78  and  _79
REMARK   31  A    between atoms: _82  and  _84
REMARK   32  A    between atoms: _84  and  _85
REMARK   33  A    between atoms: _84  and  _87
REMARK   34  A    between atoms: _87  and  _88
REMARK   35  A    between atoms: _93  and  _94
REMARK   36  A    between atoms: _96  and  _98
REMARK   37  A    between atoms: _98  and  _99
REMARK   38  A    between atoms: _98  and  _101
REMARK   39  A    between atoms: _101  and  _102
REMARK   40  A    between atoms: _102  and  _103
REMARK   41  A    between atoms: _106  and  _108
REMARK   42  A    between atoms: _108  and  _109
REMARK   43  A    between atoms: _112  and  _114
REMARK   44  A    between atoms: _114  and  _115
REMARK   45  A    between atoms: _114  and  _117
REMARK   46  A    between atoms: _117  and  _118
REMARK   47  A    between atoms: _118  and  _119
REMARK   48  A    between atoms: _122  and  _124
REMARK   49  A    between atoms: _124  and  _125
REMARK   50  A    between atoms: _127  and  _129
REMARK   51  A    between atoms: _129  and  _130
REMARK   52  A    between atoms: _129  and  _132
REMARK   53  A    between atoms: _132  and  _133
REMARK   54  A    between atoms: _138  and  _140
REMARK   55  A    between atoms: _140  and  _141
REMARK   56  A    between atoms: _140  and  _143
REMARK   57  A    between atoms: _143  and  _144
REMARK   58  A    between atoms: _144  and  _145
REMARK   59  A    between atoms: _150  and  _152
REMARK   60  A    between atoms: _152  and  _153
REMARK   61  A    between atoms: _156  and  _158
REMARK   62  A    between atoms: _158  and  _159
REMARK   63  A    between atoms: _158  and  _161
REMARK   64  A    between atoms: _161  and  _162
REMARK   65  A    between atoms: _162  and  _163
REMARK   66  A    between atoms: _163  and  _164
REMARK   67  A    between atoms: _173  and  _175
REMARK   68  A    between atoms: _175  and  _176
REMARK   69  A    between atoms: _179  and  _181
REMARK   70  A    between atoms: _181  and  _182
REMARK   71  A    between atoms: _185  and  _187
REMARK   72  A    between atoms: _187  and  _188
REMARK   73  A    between atoms: _187  and  _190
REMARK   74  A    between atoms: _190  and  _191
REMARK   75  A    between atoms: _193  and  _195
REMARK   76  A    between atoms: _195  and  _196
REMARK   77  A    between atoms: _195  and  _198
REMARK   78  A    between atoms: _201  and  _203
REMARK   79  A    between atoms: _203  and  _204
REMARK   80  A    between atoms: _203  and  _206
REMARK   81  A    between atoms: _206  and  _207
REMARK   82  A    between atoms: _212  and  _213
REMARK   83  A    between atoms: _215  and  _217
REMARK   84  A    between atoms: _217  and  _218
REMARK   85  A    between atoms: _217  and  _220
REMARK   86  A    between atoms: _220  and  _221
REMARK   87  A    between atoms: _224  and  _226
REMARK   88  A    between atoms: _226  and  _227
REMARK   89  A    between atoms: _226  and  _229
REMARK   90  A    between atoms: _229  and  _230
REMARK   91  A    between atoms: _234  and  _235
REMARK   92  A    between atoms: _240  and  _242
REMARK   93  A    between atoms: _242  and  _243
REMARK   94  A    between atoms: _242  and  _245
REMARK   95  A    between atoms: _245  and  _246
REMARK   96  A    between atoms: _251  and  _252
REMARK   97  A    between atoms: _254  and  _256
REMARK   98  A    between atoms: _256  and  _257
REMARK   99  A    between atoms: _256  and  _259
REMARK  100  A    between atoms: _262  and  _264
REMARK  101  A    between atoms: _264  and  _265
REMARK  102  A    between atoms: _268  and  _270
REMARK  103  A    between atoms: _270  and  _271
REMARK  104  A    between atoms: _270  and  _273
REMARK  105  A    between atoms: _273  and  _274
REMARK  106  A    between atoms: _274  and  _275
REMARK  107  A    between atoms: _278  and  _280
REMARK  108  A    between atoms: _280  and  _281
REMARK  109  A    between atoms: _283  and  _285
REMARK  110  A    between atoms: _285  and  _286
REMARK  111  A    between atoms: _285  and  _288
REMARK  112  A    between atoms: _288  and  _289
REMARK  113  A    between atoms: _294  and  _295
REMARK  114  A    between atoms: _297  and  _299
REMARK  115  A    between atoms: _299  and  _300
REMARK  116  A    between atoms: _299  and  _302
REMARK  117  A    between atoms: _304  and  _306
REMARK  118  A    between atoms: _306  and  _307
REMARK                            x       y       z     vdW  Elec       q    Type
REMARK                         _______ _______ _______ _____ _____    ______ ____
ROOT
ATOM      1  O   HOH     1      27.481  25.057  -1.354  0.00  0.00    +0.000 OA
ENDROOT
TORSDOF 0
REMARK  Name = ../refined-set-2016/4nbk/4nbk_pocket.pdb
REMARK  118 active torsions:
REMARK  status: ('A' for Active; 'I' for Inactive)
REMARK    1  A    between atoms: _1  and  _3
REMARK    2  A    between atoms: _3  and  _4
REMARK    3  A    between atoms: _6  and  _8
REMARK    4  A    between atoms: _8  and  _9
REMARK    5  A    between atoms: _8  and  _11
REMARK    6  A    between atoms: _11  and  _12
REMARK    7  A    between atoms: _17  and  _19
REMARK    8  A    between atoms: _19  and  _20
REMARK    9  A    between atoms: _19  and  _22
REMARK   10  A    between atoms: _22  and  _23
REMARK   11  A    between atoms: _23  and  _24
REMARK   12  A    between atoms: _29  and  _31
REMARK   13  A    between atoms: _31  and  _32
REMARK   14  A    between atoms: _31  and  _34
REMARK   15  A    between atoms: _37  and  _39
REMARK   16  A    between atoms: _39  and  _40
REMARK   17  A    between atoms: _39  and  _42
REMARK   18  A    between atoms: _42  and  _43
REMARK   19  A    between atoms: _48  and  _49
REMARK   20  A    between atoms: _51  and  _53
REMARK   21  A    between atoms: _53  and  _54
REMARK   22  A    between atoms: _53  and  _56
REMARK   23  A    between atoms: _56  and  _57
REMARK   24  A    between atoms: _60  and  _62
REMARK   25  A    between atoms: _62  and  _63
REMARK   26  A    between atoms: _62  and  _65
REMARK   27  A    between atoms: _65  and  _66
REMARK   28  A    between atoms: _70  and  _71
REMARK   29  A    between atoms: _76  and  _78
REMARK   30  A    between atoms: _78  and  _79
REMARK   31  A    between atoms: _82  and  _84
REMARK   32  A    between atoms: _84  and  _85
REMARK   33  A    between atoms: _84  and  _87
REMARK   34  A    between atoms: _87  and  _88
REMARK   35  A    between atoms: _93  and  _94
REMARK   36  A    between atoms: _96  and  _98
REMARK   37  A    between atoms: _98  and  _99
REMARK   38  A    between atoms: _98  and  _101
REMARK   39  A    between atoms: _101  and  _102
REMARK   40  A    between atoms: _102  and  _103
REMARK   41  A    between atoms: _106  and  _108
REMARK   42  A    between atoms: _108  and  _109
REMARK   43  A    between atoms: _112  and  _114
REMARK   44  A    between atoms: _114  and  _115
REMARK   45  A    between atoms: _114  and  _117
REMARK   46  A    between atoms: _117  and  _118
REMARK   47  A    between atoms: _118  and  _119
REMARK   48  A    between atoms: _122  and  _124
REMARK   49  A    between atoms: _124  and  _125
REMARK   50  A    between atoms: _127  and  _129
REMARK   51  A    between atoms: _129  and  _130
REMARK   52  A    between atoms: _129  and  _132
REMARK   53  A    between atoms: _132  and  _133
REMARK   54  A    between atoms: _138  and  _140
REMARK   55  A    between atoms: _140  and  _141
REMARK   56  A    between atoms: _140  and  _143
REMARK   57  A    between atoms: _143  and  _144
REMARK   58  A    between atoms: _144  and  _145
REMARK   59  A    between atoms: _150  and  _152
REMARK   60  A    between atoms: _152  and  _153
REMARK   61  A    between atoms: _156  and  _158
REMARK   62  A    between atoms: _158  and  _159
REMARK   63  A    between atoms: _158  and  _161
REMARK   64  A    between atoms: _161  and  _162
REMARK   65  A    between atoms: _162  and  _163
REMARK   66  A    between atoms: _163  and  _164
REMARK   67  A    between atoms: _173  and  _175
REMARK   68  A    between atoms: _175  and  _176
REMARK   69  A    between atoms: _179  and  _181
REMARK   70  A    between atoms: _181  and  _182
REMARK   71  A    between atoms: _185  and  _187
REMARK   72  A    between atoms: _187  and  _188
REMARK   73  A    between atoms: _187  and  _190
REMARK   74  A    between atoms: _190  and  _191
REMARK   75  A    between atoms: _193  and  _195
REMARK   76  A    between atoms: _195  and  _196
REMARK   77  A    between atoms: _195  and  _198
REMARK   78  A    between atoms: _201  and  _203
REMARK   79  A    between atoms: _203  and  _204
REMARK   80  A    between atoms: _203  and  _206
REMARK   81  A    between atoms: _206  and  _207
REMARK   82  A    between atoms: _212  and  _213
REMARK   83  A    between atoms: _215  and  _217
REMARK   84  A    between atoms: _217  and  _218
REMARK   85  A    between atoms: _217  and  _220
REMARK   86  A    between atoms: _220  and  _221
REMARK   87  A    between atoms: _224  and  _226
REMARK   88  A    between atoms: _226  and  _227
REMARK   89  A    between atoms: _226  and  _229
REMARK   90  A    between atoms: _229  and  _230
REMARK   91  A    between atoms: _234  and  _235
REMARK   92  A    between atoms: _240  and  _242
REMARK   93  A    between atoms: _242  and  _243
REMARK   94  A    between atoms: _242  and  _245
REMARK   95  A    between atoms: _245  and  _246
REMARK   96  A    between atoms: _251  and  _252
REMARK   97  A    between atoms: _254  and  _256
REMARK   98  A    between atoms: _256  and  _257
REMARK   99  A    between atoms: _256  and  _259
REMARK  100  A    between atoms: _262  and  _264
REMARK  101  A    between atoms: _264  and  _265
REMARK  102  A    between atoms: _268  and  _270
REMARK  103  A    between atoms: _270  and  _271
REMARK  104  A    between atoms: _270  and  _273
REMARK  105  A    between atoms: _273  and  _274
REMARK  106  A    between atoms: _274  and  _275
REMARK  107  A    between atoms: _278  and  _280
REMARK  108  A    between atoms: _280  and  _281
REMARK  109  A    between atoms: _283  and  _285
REMARK  110  A    between atoms: _285  and  _286
REMARK  111  A    between atoms: _285  and  _288
REMARK  112  A    between atoms: _288  and  _289
REMARK  113  A    between atoms: _294  and  _295
REMARK  114  A    between atoms: _297  and  _299
REMARK  115  A    between atoms: _299  and  _300
REMARK  116  A    between atoms: _299  and  _302
REMARK  117  A    between atoms: _304  and  _306
REMARK  118  A    between atoms: _306  and  _307
REMARK                            x       y       z     vdW  Elec       q    Type
REMARK                         _______ _______ _______ _____ _____    ______ ____
ROOT
ATOM      1  O   HOH     1      17.575  25.041  10.035  0.00  0.00    +0.000 OA
ENDROOT
TORSDOF 0
REMARK  Name = ../refined-set-2016/4nbk/4nbk_pocket.pdb
REMARK  118 active torsions:
REMARK  status: ('A' for Active; 'I' for Inactive)
REMARK    1  A    between atoms: _1  and  _3
REMARK    2  A    between atoms: _3  and  _4
REMARK    3  A    between atoms: _6  and  _8
REMARK    4  A    between atoms: _8  and  _9
REMARK    5  A    between atoms: _8  and  _11
REMARK    6  A    between atoms: _11  and  _12
REMARK    7  A    between atoms: _17  and  _19
REMARK    8  A    between atoms: _19  and  _20
REMARK    9  A    between atoms: _19  and  _22
REMARK   10  A    between atoms: _22  and  _23
REMARK   11  A    between atoms: _23  and  _24
REMARK   12  A    between atoms: _29  and  _31
REMARK   13  A    between atoms: _31  and  _32
REMARK   14  A    between atoms: _31  and  _34
REMARK   15  A    between atoms: _37  and  _39
REMARK   16  A    between atoms: _39  and  _40
REMARK   17  A    between atoms: _39  and  _42
REMARK   18  A    between atoms: _42  and  _43
REMARK   19  A    between atoms: _48  and  _49
REMARK   20  A    between atoms: _51  and  _53
REMARK   21  A    between atoms: _53  and  _54
REMARK   22  A    between atoms: _53  and  _56
REMARK   23  A    between atoms: _56  and  _57
REMARK   24  A    between atoms: _60  and  _62
REMARK   25  A    between atoms: _62  and  _63
REMARK   26  A    between atoms: _62  and  _65
REMARK   27  A    between atoms: _65  and  _66
REMARK   28  A    between atoms: _70  and  _71
REMARK   29  A    between atoms: _76  and  _78
REMARK   30  A    between atoms: _78  and  _79
REMARK   31  A    between atoms: _82  and  _84
REMARK   32  A    between atoms: _84  and  _85
REMARK   33  A    between atoms: _84  and  _87
REMARK   34  A    between atoms: _87  and  _88
REMARK   35  A    between atoms: _93  and  _94
REMARK   36  A    between atoms: _96  and  _98
REMARK   37  A    between atoms: _98  and  _99
REMARK   38  A    between atoms: _98  and  _101
REMARK   39  A    between atoms: _101  and  _102
REMARK   40  A    between atoms: _102  and  _103
REMARK   41  A    between atoms: _106  and  _108
REMARK   42  A    between atoms: _108  and  _109
REMARK   43  A    between atoms: _112  and  _114
REMARK   44  A    between atoms: _114  and  _115
REMARK   45  A    between atoms: _114  and  _117
REMARK   46  A    between atoms: _117  and  _118
REMARK   47  A    between atoms: _118  and  _119
REMARK   48  A    between atoms: _122  and  _124
REMARK   49  A    between atoms: _124  and  _125
REMARK   50  A    between atoms: _127  and  _129
REMARK   51  A    between atoms: _129  and  _130
REMARK   52  A    between atoms: _129  and  _132
REMARK   53  A    between atoms: _132  and  _133
REMARK   54  A    between atoms: _138  and  _140
REMARK   55  A    between atoms: _140  and  _141
REMARK   56  A    between atoms: _140  and  _143
REMARK   57  A    between atoms: _143  and  _144
REMARK   58  A    between atoms: _144  and  _145
REMARK   59  A    between atoms: _150  and  _152
REMARK   60  A    between atoms: _152  and  _153
REMARK   61  A    between atoms: _156  and  _158
REMARK   62  A    between atoms: _158  and  _159
REMARK   63  A    between atoms: _158  and  _161
REMARK   64  A    between atoms: _161  and  _162
REMARK   65  A    between atoms: _162  and  _163
REMARK   66  A    between atoms: _163  and  _164
REMARK   67  A    between atoms: _173  and  _175
REMARK   68  A    between atoms: _175  and  _176
REMARK   69  A    between atoms: _179  and  _181
REMARK   70  A    between atoms: _181  and  _182
REMARK   71  A    between atoms: _185  and  _187
REMARK   72  A    between atoms: _187  and  _188
REMARK   73  A    between atoms: _187  and  _190
REMARK   74  A    between atoms: _190  and  _191
REMARK   75  A    between atoms: _193  and  _195
REMARK   76  A    between atoms: _195  and  _196
REMARK   77  A    between atoms: _195  and  _198
REMARK   78  A    between atoms: _201  and  _203
REMARK   79  A    between atoms: _203  and  _204
REMARK   80  A    between atoms: _203  and  _206
REMARK   81  A    between atoms: _206  and  _207
REMARK   82  A    between atoms: _212  and  _213
REMARK   83  A    between atoms: _215  and  _217
REMARK   84  A    between atoms: _217  and  _218
REMARK   85  A    between atoms: _217  and  _220
REMARK   86  A    between atoms: _220  and  _221
REMARK   87  A    between atoms: _224  and  _226
REMARK   88  A    between atoms: _226  and  _227
REMARK   89  A    between atoms: _226  and  _229
REMARK   90  A    between atoms: _229  and  _230
REMARK   91  A    between atoms: _234  and  _235
REMARK   92  A    between atoms: _240  and  _242
REMARK   93  A    between atoms: _242  and  _243
REMARK   94  A    between atoms: _242  and  _245
REMARK   95  A    between atoms: _245  and  _246
REMARK   96  A    between atoms: _251  and  _252
REMARK   97  A    between atoms: _254  and  _256
REMARK   98  A    between atoms: _256  and  _257
REMARK   99  A    between atoms: _256  and  _259
REMARK  100  A    between atoms: _262  and  _264
REMARK  101  A    between atoms: _264  and  _265
REMARK  102  A    between atoms: _268  and  _270
REMARK  103  A    between atoms: _270  and  _271
REMARK  104  A    between atoms: _270  and  _273
REMARK  105  A    between atoms: _273  and  _274
REMARK  106  A    between atoms: _274  and  _275
REMARK  107  A    between atoms: _278  and  _280
REMARK  108  A    between atoms: _280  and  _281
REMARK  109  A    between atoms: _283  and  _285
REMARK  110  A    between atoms: _285  and  _286
REMARK  111  A    between atoms: _285  and  _288
REMARK  112  A    between atoms: _288  and  _289
REMARK  113  A    between atoms: _294  and  _295
REMARK  114  A    between atoms: _297  and  _299
REMARK  115  A    between atoms: _299  and  _300
REMARK  116  A    between atoms: _299  and  _302
REMARK  117  A    between atoms: _304  and  _306
REMARK  118  A    between atoms: _306  and  _307
REMARK                            x       y       z     vdW  Elec       q    Type
REMARK                         _______ _______ _______ _____ _____    ______ ____
ROOT
ATOM      1  O   HOH     1      23.119  28.071   3.243  0.00  0.00    +0.000 OA
ENDROOT
TORSDOF 0
REMARK  Name = ../refined-set-2016/4nbk/4nbk_pocket.pdb
REMARK  118 active torsions:
REMARK  status: ('A' for Active; 'I' for Inactive)
REMARK    1  A    between atoms: _1  and  _3
REMARK    2  A    between atoms: _3  and  _4
REMARK    3  A    between atoms: _6  and  _8
REMARK    4  A    between atoms: _8  and  _9
REMARK    5  A    between atoms: _8  and  _11
REMARK    6  A    between atoms: _11  and  _12
REMARK    7  A    between atoms: _17  and  _19
REMARK    8  A    between atoms: _19  and  _20
REMARK    9  A    between atoms: _19  and  _22
REMARK   10  A    between atoms: _22  and  _23
REMARK   11  A    between atoms: _23  and  _24
REMARK   12  A    between atoms: _29  and  _31
REMARK   13  A    between atoms: _31  and  _32
REMARK   14  A    between atoms: _31  and  _34
REMARK   15  A    between atoms: _37  and  _39
REMARK   16  A    between atoms: _39  and  _40
REMARK   17  A    between atoms: _39  and  _42
REMARK   18  A    between atoms: _42  and  _43
REMARK   19  A    between atoms: _48  and  _49
REMARK   20  A    between atoms: _51  and  _53
REMARK   21  A    between atoms: _53  and  _54
REMARK   22  A    between atoms: _53  and  _56
REMARK   23  A    between atoms: _56  and  _57
REMARK   24  A    between atoms: _60  and  _62
REMARK   25  A    between atoms: _62  and  _63
REMARK   26  A    between atoms: _62  and  _65
REMARK   27  A    between atoms: _65  and  _66
REMARK   28  A    between atoms: _70  and  _71
REMARK   29  A    between atoms: _76  and  _78
REMARK   30  A    between atoms: _78  and  _79
REMARK   31  A    between atoms: _82  and  _84
REMARK   32  A    between atoms: _84  and  _85
REMARK   33  A    between atoms: _84  and  _87
REMARK   34  A    between atoms: _87  and  _88
REMARK   35  A    between atoms: _93  and  _94
REMARK   36  A    between atoms: _96  and  _98
REMARK   37  A    between atoms: _98  and  _99
REMARK   38  A    between atoms: _98  and  _101
REMARK   39  A    between atoms: _101  and  _102
REMARK   40  A    between atoms: _102  and  _103
REMARK   41  A    between atoms: _106  and  _108
REMARK   42  A    between atoms: _108  and  _109
REMARK   43  A    between atoms: _112  and  _114
REMARK   44  A    between atoms: _114  and  _115
REMARK   45  A    between atoms: _114  and  _117
REMARK   46  A    between atoms: _117  and  _118
REMARK   47  A    between atoms: _118  and  _119
REMARK   48  A    between atoms: _122  and  _124
REMARK   49  A    between atoms: _124  and  _125
REMARK   50  A    between atoms: _127  and  _129
REMARK   51  A    between atoms: _129  and  _130
REMARK   52  A    between atoms: _129  and  _132
REMARK   53  A    between atoms: _132  and  _133
REMARK   54  A    between atoms: _138  and  _140
REMARK   55  A    between atoms: _140  and  _141
REMARK   56  A    between atoms: _140  and  _143
REMARK   57  A    between atoms: _143  and  _144
REMARK   58  A    between atoms: _144  and  _145
REMARK   59  A    between atoms: _150  and  _152
REMARK   60  A    between atoms: _152  and  _153
REMARK   61  A    between atoms: _156  and  _158
REMARK   62  A    between atoms: _158  and  _159
REMARK   63  A    between atoms: _158  and  _161
REMARK   64  A    between atoms: _161  and  _162
REMARK   65  A    between atoms: _162  and  _163
REMARK   66  A    between atoms: _163  and  _164
REMARK   67  A    between atoms: _173  and  _175
REMARK   68  A    between atoms: _175  and  _176
REMARK   69  A    between atoms: _179  and  _181
REMARK   70  A    between atoms: _181  and  _182
REMARK   71  A    between atoms: _185  and  _187
REMARK   72  A    between atoms: _187  and  _188
REMARK   73  A    between atoms: _187  and  _190
REMARK   74  A    between atoms: _190  and  _191
REMARK   75  A    between atoms: _193  and  _195
REMARK   76  A    between atoms: _195  and  _196
REMARK   77  A    between atoms: _195  and  _198
REMARK   78  A    between atoms: _201  and  _203
REMARK   79  A    between atoms: _203  and  _204
REMARK   80  A    between atoms: _203  and  _206
REMARK   81  A    between atoms: _206  and  _207
REMARK   82  A    between atoms: _212  and  _213
REMARK   83  A    between atoms: _215  and  _217
REMARK   84  A    between atoms: _217  and  _218
REMARK   85  A    between atoms: _217  and  _220
REMARK   86  A    between atoms: _220  and  _221
REMARK   87  A    between atoms: _224  and  _226
REMARK   88  A    between atoms: _226  and  _227
REMARK   89  A    between atoms: _226  and  _229
REMARK   90  A    between atoms: _229  and  _230
REMARK   91  A    between atoms: _234  and  _235
REMARK   92  A    between atoms: _240  and  _242
REMARK   93  A    between atoms: _242  and  _243
REMARK   94  A    between atoms: _242  and  _245
REMARK   95  A    between atoms: _245  and  _246
REMARK   96  A    between atoms: _251  and  _252
REMARK   97  A    between atoms: _254  and  _256
REMARK   98  A    between atoms: _256  and  _257
REMARK   99  A    between atoms: _256  and  _259
REMARK  100  A    between atoms: _262  and  _264
REMARK  101  A    between atoms: _264  and  _265
REMARK  102  A    between atoms: _268  and  _270
REMARK  103  A    between atoms: _270  and  _271
REMARK  104  A    between atoms: _270  and  _273
REMARK  105  A    between atoms: _273  and  _274
REMARK  106  A    between atoms: _274  and  _275
REMARK  107  A    between atoms: _278  and  _280
REMARK  108  A    between atoms: _280  and  _281
REMARK  109  A    between atoms: _283  and  _285
REMARK  110  A    between atoms: _285  and  _286
REMARK  111  A    between atoms: _285  and  _288
REMARK  112  A    between atoms: _288  and  _289
REMARK  113  A    between atoms: _294  and  _295
REMARK  114  A    between atoms: _297  and  _299
REMARK  115  A    between atoms: _299  and  _300
REMARK  116  A    between atoms: _299  and  _302
REMARK  117  A    between atoms: _304  and  _306
REMARK  118  A    between atoms: _306  and  _307
REMARK                            x       y       z     vdW  Elec       q    Type
REMARK                         _______ _______ _______ _____ _____    ______ ____
ROOT
ATOM      1  O   HOH     1      22.289  25.671   3.524  0.00  0.00    +0.000 OA
ENDROOT
TORSDOF 0
REMARK  Name = ../refined-set-2016/4nbk/4nbk_pocket.pdb
REMARK  118 active torsions:
REMARK  status: ('A' for Active; 'I' for Inactive)
REMARK    1  A    between atoms: _1  and  _3
REMARK    2  A    between atoms: _3  and  _4
REMARK    3  A    between atoms: _6  and  _8
REMARK    4  A    between atoms: _8  and  _9
REMARK    5  A    between atoms: _8  and  _11
REMARK    6  A    between atoms: _11  and  _12
REMARK    7  A    between atoms: _17  and  _19
REMARK    8  A    between atoms: _19  and  _20
REMARK    9  A    between atoms: _19  and  _22
REMARK   10  A    between atoms: _22  and  _23
REMARK   11  A    between atoms: _23  and  _24
REMARK   12  A    between atoms: _29  and  _31
REMARK   13  A    between atoms: _31  and  _32
REMARK   14  A    between atoms: _31  and  _34
REMARK   15  A    between atoms: _37  and  _39
REMARK   16  A    between atoms: _39  and  _40
REMARK   17  A    between atoms: _39  and  _42
REMARK   18  A    between atoms: _42  and  _43
REMARK   19  A    between atoms: _48  and  _49
REMARK   20  A    between atoms: _51  and  _53
REMARK   21  A    between atoms: _53  and  _54
REMARK   22  A    between atoms: _53  and  _56
REMARK   23  A    between atoms: _56  and  _57
REMARK   24  A    between atoms: _60  and  _62
REMARK   25  A    between atoms: _62  and  _63
REMARK   26  A    between atoms: _62  and  _65
REMARK   27  A    between atoms: _65  and  _66
REMARK   28  A    between atoms: _70  and  _71
REMARK   29  A    between atoms: _76  and  _78
REMARK   30  A    between atoms: _78  and  _79
REMARK   31  A    between atoms: _82  and  _84
REMARK   32  A    between atoms: _84  and  _85
REMARK   33  A    between atoms: _84  and  _87
REMARK   34  A    between atoms: _87  and  _88
REMARK   35  A    between atoms: _93  and  _94
REMARK   36  A    between atoms: _96  and  _98
REMARK   37  A    between atoms: _98  and  _99
REMARK   38  A    between atoms: _98  and  _101
REMARK   39  A    between atoms: _101  and  _102
REMARK   40  A    between atoms: _102  and  _103
REMARK   41  A    between atoms: _106  and  _108
REMARK   42  A    between atoms: _108  and  _109
REMARK   43  A    between atoms: _112  and  _114
REMARK   44  A    between atoms: _114  and  _115
REMARK   45  A    between atoms: _114  and  _117
REMARK   46  A    between atoms: _117  and  _118
REMARK   47  A    between atoms: _118  and  _119
REMARK   48  A    between atoms: _122  and  _124
REMARK   49  A    between atoms: _124  and  _125
REMARK   50  A    between atoms: _127  and  _129
REMARK   51  A    between atoms: _129  and  _130
REMARK   52  A    between atoms: _129  and  _132
REMARK   53  A    between atoms: _132  and  _133
REMARK   54  A    between atoms: _138  and  _140
REMARK   55  A    between atoms: _140  and  _141
REMARK   56  A    between atoms: _140  and  _143
REMARK   57  A    between atoms: _143  and  _144
REMARK   58  A    between atoms: _144  and  _145
REMARK   59  A    between atoms: _150  and  _152
REMARK   60  A    between atoms: _152  and  _153
REMARK   61  A    between atoms: _156  and  _158
REMARK   62  A    between atoms: _158  and  _159
REMARK   63  A    between atoms: _158  and  _161
REMARK   64  A    between atoms: _161  and  _162
REMARK   65  A    between atoms: _162  and  _163
REMARK   66  A    between atoms: _163  and  _164
REMARK   67  A    between atoms: _173  and  _175
REMARK   68  A    between atoms: _175  and  _176
REMARK   69  A    between atoms: _179  and  _181
REMARK   70  A    between atoms: _181  and  _182
REMARK   71  A    between atoms: _185  and  _187
REMARK   72  A    between atoms: _187  and  _188
REMARK   73  A    between atoms: _187  and  _190
REMARK   74  A    between atoms: _190  and  _191
REMARK   75  A    between atoms: _193  and  _195
REMARK   76  A    between atoms: _195  and  _196
REMARK   77  A    between atoms: _195  and  _198
REMARK   78  A    between atoms: _201  and  _203
REMARK   79  A    between atoms: _203  and  _204
REMARK   80  A    between atoms: _203  and  _206
REMARK   81  A    between atoms: _206  and  _207
REMARK   82  A    between atoms: _212  and  _213
REMARK   83  A    between atoms: _215  and  _217
REMARK   84  A    between atoms: _217  and  _218
REMARK   85  A    between atoms: _217  and  _220
REMARK   86  A    between atoms: _220  and  _221
REMARK   87  A    between atoms: _224  and  _226
REMARK   88  A    between atoms: _226  and  _227
REMARK   89  A    between atoms: _226  and  _229
REMARK   90  A    between atoms: _229  and  _230
REMARK   91  A    between atoms: _234  and  _235
REMARK   92  A    between atoms: _240  and  _242
REMARK   93  A    between atoms: _242  and  _243
REMARK   94  A    between atoms: _242  and  _245
REMARK   95  A    between atoms: _245  and  _246
REMARK   96  A    between atoms: _251  and  _252
REMARK   97  A    between atoms: _254  and  _256
REMARK   98  A    between atoms: _256  and  _257
REMARK   99  A    between atoms: _256  and  _259
REMARK  100  A    between atoms: _262  and  _264
REMARK  101  A    between atoms: _264  and  _265
REMARK  102  A    between atoms: _268  and  _270
REMARK  103  A    between atoms: _270  and  _271
REMARK  104  A    between atoms: _270  and  _273
REMARK  105  A    between atoms: _273  and  _274
REMARK  106  A    between atoms: _274  and  _275
REMARK  107  A    between atoms: _278  and  _280
REMARK  108  A    between atoms: _280  and  _281
REMARK  109  A    between atoms: _283  and  _285
REMARK  110  A    between atoms: _285  and  _286
REMARK  111  A    between atoms: _285  and  _288
REMARK  112  A    between atoms: _288  and  _289
REMARK  113  A    between atoms: _294  and  _295
REMARK  114  A    between atoms: _297  and  _299
REMARK  115  A    between atoms: _299  and  _300
REMARK  116  A    between atoms: _299  and  _302
REMARK  117  A    between atoms: _304  and  _306
REMARK  118  A    between atoms: _306  and  _307
REMARK                            x       y       z     vdW  Elec       q    Type
REMARK                         _______ _______ _______ _____ _____    ______ ____
ROOT
ATOM      1  O   HOH     1      28.125  27.467  -1.326  0.00  0.00    +0.000 OA
ENDROOT
TORSDOF 0
REMARK  Name = ../refined-set-2016/4nbk/4nbk_pocket.pdb
REMARK  118 active torsions:
REMARK  status: ('A' for Active; 'I' for Inactive)
REMARK    1  A    between atoms: _1  and  _3
REMARK    2  A    between atoms: _3  and  _4
REMARK    3  A    between atoms: _6  and  _8
REMARK    4  A    between atoms: _8  and  _9
REMARK    5  A    between atoms: _8  and  _11
REMARK    6  A    between atoms: _11  and  _12
REMARK    7  A    between atoms: _17  and  _19
REMARK    8  A    between atoms: _19  and  _20
REMARK    9  A    between atoms: _19  and  _22
REMARK   10  A    between atoms: _22  and  _23
REMARK   11  A    between atoms: _23  and  _24
REMARK   12  A    between atoms: _29  and  _31
REMARK   13  A    between atoms: _31  and  _32
REMARK   14  A    between atoms: _31  and  _34
REMARK   15  A    between atoms: _37  and  _39
REMARK   16  A    between atoms: _39  and  _40
REMARK   17  A    between atoms: _39  and  _42
REMARK   18  A    between atoms: _42  and  _43
REMARK   19  A    between atoms: _48  and  _49
REMARK   20  A    between atoms: _51  and  _53
REMARK   21  A    between atoms: _53  and  _54
REMARK   22  A    between atoms: _53  and  _56
REMARK   23  A    between atoms: _56  and  _57
REMARK   24  A    between atoms: _60  and  _62
REMARK   25  A    between atoms: _62  and  _63
REMARK   26  A    between atoms: _62  and  _65
REMARK   27  A    between atoms: _65  and  _66
REMARK   28  A    between atoms: _70  and  _71
REMARK   29  A    between atoms: _76  and  _78
REMARK   30  A    between atoms: _78  and  _79
REMARK   31  A    between atoms: _82  and  _84
REMARK   32  A    between atoms: _84  and  _85
REMARK   33  A    between atoms: _84  and  _87
REMARK   34  A    between atoms: _87  and  _88
REMARK   35  A    between atoms: _93  and  _94
REMARK   36  A    between atoms: _96  and  _98
REMARK   37  A    between atoms: _98  and  _99
REMARK   38  A    between atoms: _98  and  _101
REMARK   39  A    between atoms: _101  and  _102
REMARK   40  A    between atoms: _102  and  _103
REMARK   41  A    between atoms: _106  and  _108
REMARK   42  A    between atoms: _108  and  _109
REMARK   43  A    between atoms: _112  and  _114
REMARK   44  A    between atoms: _114  and  _115
REMARK   45  A    between atoms: _114  and  _117
REMARK   46  A    between atoms: _117  and  _118
REMARK   47  A    between atoms: _118  and  _119
REMARK   48  A    between atoms: _122  and  _124
REMARK   49  A    between atoms: _124  and  _125
REMARK   50  A    between atoms: _127  and  _129
REMARK   51  A    between atoms: _129  and  _130
REMARK   52  A    between atoms: _129  and  _132
REMARK   53  A    between atoms: _132  and  _133
REMARK   54  A    between atoms: _138  and  _140
REMARK   55  A    between atoms: _140  and  _141
REMARK   56  A    between atoms: _140  and  _143
REMARK   57  A    between atoms: _143  and  _144
REMARK   58  A    between atoms: _144  and  _145
REMARK   59  A    between atoms: _150  and  _152
REMARK   60  A    between atoms: _152  and  _153
REMARK   61  A    between atoms: _156  and  _158
REMARK   62  A    between atoms: _158  and  _159
REMARK   63  A    between atoms: _158  and  _161
REMARK   64  A    between atoms: _161  and  _162
REMARK   65  A    between atoms: _162  and  _163
REMARK   66  A    between atoms: _163  and  _164
REMARK   67  A    between atoms: _173  and  _175
REMARK   68  A    between atoms: _175  and  _176
REMARK   69  A    between atoms: _179  and  _181
REMARK   70  A    between atoms: _181  and  _182
REMARK   71  A    between atoms: _185  and  _187
REMARK   72  A    between atoms: _187  and  _188
REMARK   73  A    between atoms: _187  and  _190
REMARK   74  A    between atoms: _190  and  _191
REMARK   75  A    between atoms: _193  and  _195
REMARK   76  A    between atoms: _195  and  _196
REMARK   77  A    between atoms: _195  and  _198
REMARK   78  A    between atoms: _201  and  _203
REMARK   79  A    between atoms: _203  and  _204
REMARK   80  A    between atoms: _203  and  _206
REMARK   81  A    between atoms: _206  and  _207
REMARK   82  A    between atoms: _212  and  _213
REMARK   83  A    between atoms: _215  and  _217
REMARK   84  A    between atoms: _217  and  _218
REMARK   85  A    between atoms: _217  and  _220
REMARK   86  A    between atoms: _220  and  _221
REMARK   87  A    between atoms: _224  and  _226
REMARK   88  A    between atoms: _226  and  _227
REMARK   89  A    between atoms: _226  and  _229
REMARK   90  A    between atoms: _229  and  _230
REMARK   91  A    between atoms: _234  and  _235
REMARK   92  A    between atoms: _240  and  _242
REMARK   93  A    between atoms: _242  and  _243
REMARK   94  A    between atoms: _242  and  _245
REMARK   95  A    between atoms: _245  and  _246
REMARK   96  A    between atoms: _251  and  _252
REMARK   97  A    between atoms: _254  and  _256
REMARK   98  A    between atoms: _256  and  _257
REMARK   99  A    between atoms: _256  and  _259
REMARK  100  A    between atoms: _262  and  _264
REMARK  101  A    between atoms: _264  and  _265
REMARK  102  A    between atoms: _268  and  _270
REMARK  103  A    between atoms: _270  and  _271
REMARK  104  A    between atoms: _270  and  _273
REMARK  105  A    between atoms: _273  and  _274
REMARK  106  A    between atoms: _274  and  _275
REMARK  107  A    between atoms: _278  and  _280
REMARK  108  A    between atoms: _280  and  _281
REMARK  109  A    between atoms: _283  and  _285
REMARK  110  A    between atoms: _285  and  _286
REMARK  111  A    between atoms: _285  and  _288
REMARK  112  A    between atoms: _288  and  _289
REMARK  113  A    between atoms: _294  and  _295
REMARK  114  A    between atoms: _297  and  _299
REMARK  115  A    between atoms: _299  and  _300
REMARK  116  A    between atoms: _299  and  _302
REMARK  117  A    between atoms: _304  and  _306
REMARK  118  A    between atoms: _306  and  _307
REMARK                            x       y       z     vdW  Elec       q    Type
REMARK                         _______ _______ _______ _____ _____    ______ ____
ROOT
ATOM      1  O   HOH     1      19.394  25.793   1.816  0.00  0.00    +0.000 OA
ENDROOT
TORSDOF 0
REMARK  Name = ../refined-set-2016/4nbk/4nbk_pocket.pdb
REMARK  118 active torsions:
REMARK  status: ('A' for Active; 'I' for Inactive)
REMARK    1  A    between atoms: _1  and  _3
REMARK    2  A    between atoms: _3  and  _4
REMARK    3  A    between atoms: _6  and  _8
REMARK    4  A    between atoms: _8  and  _9
REMARK    5  A    between atoms: _8  and  _11
REMARK    6  A    between atoms: _11  and  _12
REMARK    7  A    between atoms: _17  and  _19
REMARK    8  A    between atoms: _19  and  _20
REMARK    9  A    between atoms: _19  and  _22
REMARK   10  A    between atoms: _22  and  _23
REMARK   11  A    between atoms: _23  and  _24
REMARK   12  A    between atoms: _29  and  _31
REMARK   13  A    between atoms: _31  and  _32
REMARK   14  A    between atoms: _31  and  _34
REMARK   15  A    between atoms: _37  and  _39
REMARK   16  A    between atoms: _39  and  _40
REMARK   17  A    between atoms: _39  and  _42
REMARK   18  A    between atoms: _42  and  _43
REMARK   19  A    between atoms: _48  and  _49
REMARK   20  A    between atoms: _51  and  _53
REMARK   21  A    between atoms: _53  and  _54
REMARK   22  A    between atoms: _53  and  _56
REMARK   23  A    between atoms: _56  and  _57
REMARK   24  A    between atoms: _60  and  _62
REMARK   25  A    between atoms: _62  and  _63
REMARK   26  A    between atoms: _62  and  _65
REMARK   27  A    between atoms: _65  and  _66
REMARK   28  A    between atoms: _70  and  _71
REMARK   29  A    between atoms: _76  and  _78
REMARK   30  A    between atoms: _78  and  _79
REMARK   31  A    between atoms: _82  and  _84
REMARK   32  A    between atoms: _84  and  _85
REMARK   33  A    between atoms: _84  and  _87
REMARK   34  A    between atoms: _87  and  _88
REMARK   35  A    between atoms: _93  and  _94
REMARK   36  A    between atoms: _96  and  _98
REMARK   37  A    between atoms: _98  and  _99
REMARK   38  A    between atoms: _98  and  _101
REMARK   39  A    between atoms: _101  and  _102
REMARK   40  A    between atoms: _102  and  _103
REMARK   41  A    between atoms: _106  and  _108
REMARK   42  A    between atoms: _108  and  _109
REMARK   43  A    between atoms: _112  and  _114
REMARK   44  A    between atoms: _114  and  _115
REMARK   45  A    between atoms: _114  and  _117
REMARK   46  A    between atoms: _117  and  _118
REMARK   47  A    between atoms: _118  and  _119
REMARK   48  A    between atoms: _122  and  _124
REMARK   49  A    between atoms: _124  and  _125
REMARK   50  A    between atoms: _127  and  _129
REMARK   51  A    between atoms: _129  and  _130
REMARK   52  A    between atoms: _129  and  _132
REMARK   53  A    between atoms: _132  and  _133
REMARK   54  A    between atoms: _138  and  _140
REMARK   55  A    between atoms: _140  and  _141
REMARK   56  A    between atoms: _140  and  _143
REMARK   57  A    between atoms: _143  and  _144
REMARK   58  A    between atoms: _144  and  _145
REMARK   59  A    between atoms: _150  and  _152
REMARK   60  A    between atoms: _152  and  _153
REMARK   61  A    between atoms: _156  and  _158
REMARK   62  A    between atoms: _158  and  _159
REMARK   63  A    between atoms: _158  and  _161
REMARK   64  A    between atoms: _161  and  _162
REMARK   65  A    between atoms: _162  and  _163
REMARK   66  A    between atoms: _163  and  _164
REMARK   67  A    between atoms: _173  and  _175
REMARK   68  A    between atoms: _175  and  _176
REMARK   69  A    between atoms: _179  and  _181
REMARK   70  A    between atoms: _181  and  _182
REMARK   71  A    between atoms: _185  and  _187
REMARK   72  A    between atoms: _187  and  _188
REMARK   73  A    between atoms: _187  and  _190
REMARK   74  A    between atoms: _190  and  _191
REMARK   75  A    between atoms: _193  and  _195
REMARK   76  A    between atoms: _195  and  _196
REMARK   77  A    between atoms: _195  and  _198
REMARK   78  A    between atoms: _201  and  _203
REMARK   79  A    between atoms: _203  and  _204
REMARK   80  A    between atoms: _203  and  _206
REMARK   81  A    between atoms: _206  and  _207
REMARK   82  A    between atoms: _212  and  _213
REMARK   83  A    between atoms: _215  and  _217
REMARK   84  A    between atoms: _217  and  _218
REMARK   85  A    between atoms: _217  and  _220
REMARK   86  A    between atoms: _220  and  _221
REMARK   87  A    between atoms: _224  and  _226
REMARK   88  A    between atoms: _226  and  _227
REMARK   89  A    between atoms: _226  and  _229
REMARK   90  A    between atoms: _229  and  _230
REMARK   91  A    between atoms: _234  and  _235
REMARK   92  A    between atoms: _240  and  _242
REMARK   93  A    between atoms: _242  and  _243
REMARK   94  A    between atoms: _242  and  _245
REMARK   95  A    between atoms: _245  and  _246
REMARK   96  A    between atoms: _251  and  _252
REMARK   97  A    between atoms: _254  and  _256
REMARK   98  A    between atoms: _256  and  _257
REMARK   99  A    between atoms: _256  and  _259
REMARK  100  A    between atoms: _262  and  _264
REMARK  101  A    between atoms: _264  and  _265
REMARK  102  A    between atoms: _268  and  _270
REMARK  103  A    between atoms: _270  and  _271
REMARK  104  A    between atoms: _270  and  _273
REMARK  105  A    between atoms: _273  and  _274
REMARK  106  A    between atoms: _274  and  _275
REMARK  107  A    between atoms: _278  and  _280
REMARK  108  A    between atoms: _280  and  _281
REMARK  109  A    between atoms: _283  and  _285
REMARK  110  A    between atoms: _285  and  _286
REMARK  111  A    between atoms: _285  and  _288
REMARK  112  A    between atoms: _288  and  _289
REMARK  113  A    between atoms: _294  and  _295
REMARK  114  A    between atoms: _297  and  _299
REMARK  115  A    between atoms: _299  and  _300
REMARK  116  A    between atoms: _299  and  _302
REMARK  117  A    between atoms: _304  and  _306
REMARK  118  A    between atoms: _306  and  _307
REMARK                            x       y       z     vdW  Elec       q    Type
REMARK                         _______ _______ _______ _____ _____    ______ ____
ROOT
ATOM      1  O   HOH     1      17.308  24.072   2.584  0.00  0.00    +0.000 OA
ENDROOT
TORSDOF 0
REMARK  Name = ../refined-set-2016/4nbk/4nbk_pocket.pdb
REMARK  118 active torsions:
REMARK  status: ('A' for Active; 'I' for Inactive)
REMARK    1  A    between atoms: _1  and  _3
REMARK    2  A    between atoms: _3  and  _4
REMARK    3  A    between atoms: _6  and  _8
REMARK    4  A    between atoms: _8  and  _9
REMARK    5  A    between atoms: _8  and  _11
REMARK    6  A    between atoms: _11  and  _12
REMARK    7  A    between atoms: _17  and  _19
REMARK    8  A    between atoms: _19  and  _20
REMARK    9  A    between atoms: _19  and  _22
REMARK   10  A    between atoms: _22  and  _23
REMARK   11  A    between atoms: _23  and  _24
REMARK   12  A    between atoms: _29  and  _31
REMARK   13  A    between atoms: _31  and  _32
REMARK   14  A    between atoms: _31  and  _34
REMARK   15  A    between atoms: _37  and  _39
REMARK   16  A    between atoms: _39  and  _40
REMARK   17  A    between atoms: _39  and  _42
REMARK   18  A    between atoms: _42  and  _43
REMARK   19  A    between atoms: _48  and  _49
REMARK   20  A    between atoms: _51  and  _53
REMARK   21  A    between atoms: _53  and  _54
REMARK   22  A    between atoms: _53  and  _56
REMARK   23  A    between atoms: _56  and  _57
REMARK   24  A    between atoms: _60  and  _62
REMARK   25  A    between atoms: _62  and  _63
REMARK   26  A    between atoms: _62  and  _65
REMARK   27  A    between atoms: _65  and  _66
REMARK   28  A    between atoms: _70  and  _71
REMARK   29  A    between atoms: _76  and  _78
REMARK   30  A    between atoms: _78  and  _79
REMARK   31  A    between atoms: _82  and  _84
REMARK   32  A    between atoms: _84  and  _85
REMARK   33  A    between atoms: _84  and  _87
REMARK   34  A    between atoms: _87  and  _88
REMARK   35  A    between atoms: _93  and  _94
REMARK   36  A    between atoms: _96  and  _98
REMARK   37  A    between atoms: _98  and  _99
REMARK   38  A    between atoms: _98  and  _101
REMARK   39  A    between atoms: _101  and  _102
REMARK   40  A    between atoms: _102  and  _103
REMARK   41  A    between atoms: _106  and  _108
REMARK   42  A    between atoms: _108  and  _109
REMARK   43  A    between atoms: _112  and  _114
REMARK   44  A    between atoms: _114  and  _115
REMARK   45  A    between atoms: _114  and  _117
REMARK   46  A    between atoms: _117  and  _118
REMARK   47  A    between atoms: _118  and  _119
REMARK   48  A    between atoms: _122  and  _124
REMARK   49  A    between atoms: _124  and  _125
REMARK   50  A    between atoms: _127  and  _129
REMARK   51  A    between atoms: _129  and  _130
REMARK   52  A    between atoms: _129  and  _132
REMARK   53  A    between atoms: _132  and  _133
REMARK   54  A    between atoms: _138  and  _140
REMARK   55  A    between atoms: _140  and  _141
REMARK   56  A    between atoms: _140  and  _143
REMARK   57  A    between atoms: _143  and  _144
REMARK   58  A    between atoms: _144  and  _145
REMARK   59  A    between atoms: _150  and  _152
REMARK   60  A    between atoms: _152  and  _153
REMARK   61  A    between atoms: _156  and  _158
REMARK   62  A    between atoms: _158  and  _159
REMARK   63  A    between atoms: _158  and  _161
REMARK   64  A    between atoms: _161  and  _162
REMARK   65  A    between atoms: _162  and  _163
REMARK   66  A    between atoms: _163  and  _164
REMARK   67  A    between atoms: _173  and  _175
REMARK   68  A    between atoms: _175  and  _176
REMARK   69  A    between atoms: _179  and  _181
REMARK   70  A    between atoms: _181  and  _182
REMARK   71  A    between atoms: _185  and  _187
REMARK   72  A    between atoms: _187  and  _188
REMARK   73  A    between atoms: _187  and  _190
REMARK   74  A    between atoms: _190  and  _191
REMARK   75  A    between atoms: _193  and  _195
REMARK   76  A    between atoms: _195  and  _196
REMARK   77  A    between atoms: _195  and  _198
REMARK   78  A    between atoms: _201  and  _203
REMARK   79  A    between atoms: _203  and  _204
REMARK   80  A    between atoms: _203  and  _206
REMARK   81  A    between atoms: _206  and  _207
REMARK   82  A    between atoms: _212  and  _213
REMARK   83  A    between atoms: _215  and  _217
REMARK   84  A    between atoms: _217  and  _218
REMARK   85  A    between atoms: _217  and  _220
REMARK   86  A    between atoms: _220  and  _221
REMARK   87  A    between atoms: _224  and  _226
REMARK   88  A    between atoms: _226  and  _227
REMARK   89  A    between atoms: _226  and  _229
REMARK   90  A    between atoms: _229  and  _230
REMARK   91  A    between atoms: _234  and  _235
REMARK   92  A    between atoms: _240  and  _242
REMARK   93  A    between atoms: _242  and  _243
REMARK   94  A    between atoms: _242  and  _245
REMARK   95  A    between atoms: _245  and  _246
REMARK   96  A    between atoms: _251  and  _252
REMARK   97  A    between atoms: _254  and  _256
REMARK   98  A    between atoms: _256  and  _257
REMARK   99  A    between atoms: _256  and  _259
REMARK  100  A    between atoms: _262  and  _264
REMARK  101  A    between atoms: _264  and  _265
REMARK  102  A    between atoms: _268  and  _270
REMARK  103  A    between atoms: _270  and  _271
REMARK  104  A    between atoms: _270  and  _273
REMARK  105  A    between atoms: _273  and  _274
REMARK  106  A    between atoms: _274  and  _275
REMARK  107  A    between atoms: _278  and  _280
REMARK  108  A    between atoms: _280  and  _281
REMARK  109  A    between atoms: _283  and  _285
REMARK  110  A    between atoms: _285  and  _286
REMARK  111  A    between atoms: _285  and  _288
REMARK  112  A    between atoms: _288  and  _289
REMARK  113  A    between atoms: _294  and  _295
REMARK  114  A    between atoms: _297  and  _299
REMARK  115  A    between atoms: _299  and  _300
REMARK  116  A    between atoms: _299  and  _302
REMARK  117  A    between atoms: _304  and  _306
REMARK  118  A    between atoms: _306  and  _307
REMARK                            x       y       z     vdW  Elec       q    Type
REMARK                         _______ _______ _______ _____ _____    ______ ____
ROOT
ATOM      1  O   HOH     1      20.735  38.513   6.334  0.00  0.00    +0.000 OA
ENDROOT
TORSDOF 0
REMARK  Name = ../refined-set-2016/4nbk/4nbk_pocket.pdb
REMARK  118 active torsions:
REMARK  status: ('A' for Active; 'I' for Inactive)
REMARK    1  A    between atoms: _1  and  _3
REMARK    2  A    between atoms: _3  and  _4
REMARK    3  A    between atoms: _6  and  _8
REMARK    4  A    between atoms: _8  and  _9
REMARK    5  A    between atoms: _8  and  _11
REMARK    6  A    between atoms: _11  and  _12
REMARK    7  A    between atoms: _17  and  _19
REMARK    8  A    between atoms: _19  and  _20
REMARK    9  A    between atoms: _19  and  _22
REMARK   10  A    between atoms: _22  and  _23
REMARK   11  A    between atoms: _23  and  _24
REMARK   12  A    between atoms: _29  and  _31
REMARK   13  A    between atoms: _31  and  _32
REMARK   14  A    between atoms: _31  and  _34
REMARK   15  A    between atoms: _37  and  _39
REMARK   16  A    between atoms: _39  and  _40
REMARK   17  A    between atoms: _39  and  _42
REMARK   18  A    between atoms: _42  and  _43
REMARK   19  A    between atoms: _48  and  _49
REMARK   20  A    between atoms: _51  and  _53
REMARK   21  A    between atoms: _53  and  _54
REMARK   22  A    between atoms: _53  and  _56
REMARK   23  A    between atoms: _56  and  _57
REMARK   24  A    between atoms: _60  and  _62
REMARK   25  A    between atoms: _62  and  _63
REMARK   26  A    between atoms: _62  and  _65
REMARK   27  A    between atoms: _65  and  _66
REMARK   28  A    between atoms: _70  and  _71
REMARK   29  A    between atoms: _76  and  _78
REMARK   30  A    between atoms: _78  and  _79
REMARK   31  A    between atoms: _82  and  _84
REMARK   32  A    between atoms: _84  and  _85
REMARK   33  A    between atoms: _84  and  _87
REMARK   34  A    between atoms: _87  and  _88
REMARK   35  A    between atoms: _93  and  _94
REMARK   36  A    between atoms: _96  and  _98
REMARK   37  A    between atoms: _98  and  _99
REMARK   38  A    between atoms: _98  and  _101
REMARK   39  A    between atoms: _101  and  _102
REMARK   40  A    between atoms: _102  and  _103
REMARK   41  A    between atoms: _106  and  _108
REMARK   42  A    between atoms: _108  and  _109
REMARK   43  A    between atoms: _112  and  _114
REMARK   44  A    between atoms: _114  and  _115
REMARK   45  A    between atoms: _114  and  _117
REMARK   46  A    between atoms: _117  and  _118
REMARK   47  A    between atoms: _118  and  _119
REMARK   48  A    between atoms: _122  and  _124
REMARK   49  A    between atoms: _124  and  _125
REMARK   50  A    between atoms: _127  and  _129
REMARK   51  A    between atoms: _129  and  _130
REMARK   52  A    between atoms: _129  and  _132
REMARK   53  A    between atoms: _132  and  _133
REMARK   54  A    between atoms: _138  and  _140
REMARK   55  A    between atoms: _140  and  _141
REMARK   56  A    between atoms: _140  and  _143
REMARK   57  A    between atoms: _143  and  _144
REMARK   58  A    between atoms: _144  and  _145
REMARK   59  A    between atoms: _150  and  _152
REMARK   60  A    between atoms: _152  and  _153
REMARK   61  A    between atoms: _156  and  _158
REMARK   62  A    between atoms: _158  and  _159
REMARK   63  A    between atoms: _158  and  _161
REMARK   64  A    between atoms: _161  and  _162
REMARK   65  A    between atoms: _162  and  _163
REMARK   66  A    between atoms: _163  and  _164
REMARK   67  A    between atoms: _173  and  _175
REMARK   68  A    between atoms: _175  and  _176
REMARK   69  A    between atoms: _179  and  _181
REMARK   70  A    between atoms: _181  and  _182
REMARK   71  A    between atoms: _185  and  _187
REMARK   72  A    between atoms: _187  and  _188
REMARK   73  A    between atoms: _187  and  _190
REMARK   74  A    between atoms: _190  and  _191
REMARK   75  A    between atoms: _193  and  _195
REMARK   76  A    between atoms: _195  and  _196
REMARK   77  A    between atoms: _195  and  _198
REMARK   78  A    between atoms: _201  and  _203
REMARK   79  A    between atoms: _203  and  _204
REMARK   80  A    between atoms: _203  and  _206
REMARK   81  A    between atoms: _206  and  _207
REMARK   82  A    between atoms: _212  and  _213
REMARK   83  A    between atoms: _215  and  _217
REMARK   84  A    between atoms: _217  and  _218
REMARK   85  A    between atoms: _217  and  _220
REMARK   86  A    between atoms: _220  and  _221
REMARK   87  A    between atoms: _224  and  _226
REMARK   88  A    between atoms: _226  and  _227
REMARK   89  A    between atoms: _226  and  _229
REMARK   90  A    between atoms: _229  and  _230
REMARK   91  A    between atoms: _234  and  _235
REMARK   92  A    between atoms: _240  and  _242
REMARK   93  A    between atoms: _242  and  _243
REMARK   94  A    between atoms: _242  and  _245
REMARK   95  A    between atoms: _245  and  _246
REMARK   96  A    between atoms: _251  and  _252
REMARK   97  A    between atoms: _254  and  _256
REMARK   98  A    between atoms: _256  and  _257
REMARK   99  A    between atoms: _256  and  _259
REMARK  100  A    between atoms: _262  and  _264
REMARK  101  A    between atoms: _264  and  _265
REMARK  102  A    between atoms: _268  and  _270
REMARK  103  A    between atoms: _270  and  _271
REMARK  104  A    between atoms: _270  and  _273
REMARK  105  A    between atoms: _273  and  _274
REMARK  106  A    between atoms: _274  and  _275
REMARK  107  A    between atoms: _278  and  _280
REMARK  108  A    between atoms: _280  and  _281
REMARK  109  A    between atoms: _283  and  _285
REMARK  110  A    between atoms: _285  and  _286
REMARK  111  A    between atoms: _285  and  _288
REMARK  112  A    between atoms: _288  and  _289
REMARK  113  A    between atoms: _294  and  _295
REMARK  114  A    between atoms: _297  and  _299
REMARK  115  A    between atoms: _299  and  _300
REMARK  116  A    between atoms: _299  and  _302
REMARK  117  A    between atoms: _304  and  _306
REMARK  118  A    between atoms: _306  and  _307
REMARK                            x       y       z     vdW  Elec       q    Type
REMARK                         _______ _______ _______ _____ _____    ______ ____
ROOT
ATOM      1  O   HOH     1      21.977  40.037   9.532  0.00  0.00    +0.000 OA
ENDROOT
TORSDOF 0
REMARK  Name = ../refined-set-2016/4nbk/4nbk_pocket.pdb
REMARK  118 active torsions:
REMARK  status: ('A' for Active; 'I' for Inactive)
REMARK    1  A    between atoms: _1  and  _3
REMARK    2  A    between atoms: _3  and  _4
REMARK    3  A    between atoms: _6  and  _8
REMARK    4  A    between atoms: _8  and  _9
REMARK    5  A    between atoms: _8  and  _11
REMARK    6  A    between atoms: _11  and  _12
REMARK    7  A    between atoms: _17  and  _19
REMARK    8  A    between atoms: _19  and  _20
REMARK    9  A    between atoms: _19  and  _22
REMARK   10  A    between atoms: _22  and  _23
REMARK   11  A    between atoms: _23  and  _24
REMARK   12  A    between atoms: _29  and  _31
REMARK   13  A    between atoms: _31  and  _32
REMARK   14  A    between atoms: _31  and  _34
REMARK   15  A    between atoms: _37  and  _39
REMARK   16  A    between atoms: _39  and  _40
REMARK   17  A    between atoms: _39  and  _42
REMARK   18  A    between atoms: _42  and  _43
REMARK   19  A    between atoms: _48  and  _49
REMARK   20  A    between atoms: _51  and  _53
REMARK   21  A    between atoms: _53  and  _54
REMARK   22  A    between atoms: _53  and  _56
REMARK   23  A    between atoms: _56  and  _57
REMARK   24  A    between atoms: _60  and  _62
REMARK   25  A    between atoms: _62  and  _63
REMARK   26  A    between atoms: _62  and  _65
REMARK   27  A    between atoms: _65  and  _66
REMARK   28  A    between atoms: _70  and  _71
REMARK   29  A    between atoms: _76  and  _78
REMARK   30  A    between atoms: _78  and  _79
REMARK   31  A    between atoms: _82  and  _84
REMARK   32  A    between atoms: _84  and  _85
REMARK   33  A    between atoms: _84  and  _87
REMARK   34  A    between atoms: _87  and  _88
REMARK   35  A    between atoms: _93  and  _94
REMARK   36  A    between atoms: _96  and  _98
REMARK   37  A    between atoms: _98  and  _99
REMARK   38  A    between atoms: _98  and  _101
REMARK   39  A    between atoms: _101  and  _102
REMARK   40  A    between atoms: _102  and  _103
REMARK   41  A    between atoms: _106  and  _108
REMARK   42  A    between atoms: _108  and  _109
REMARK   43  A    between atoms: _112  and  _114
REMARK   44  A    between atoms: _114  and  _115
REMARK   45  A    between atoms: _114  and  _117
REMARK   46  A    between atoms: _117  and  _118
REMARK   47  A    between atoms: _118  and  _119
REMARK   48  A    between atoms: _122  and  _124
REMARK   49  A    between atoms: _124  and  _125
REMARK   50  A    between atoms: _127  and  _129
REMARK   51  A    between atoms: _129  and  _130
REMARK   52  A    between atoms: _129  and  _132
REMARK   53  A    between atoms: _132  and  _133
REMARK   54  A    between atoms: _138  and  _140
REMARK   55  A    between atoms: _140  and  _141
REMARK   56  A    between atoms: _140  and  _143
REMARK   57  A    between atoms: _143  and  _144
REMARK   58  A    between atoms: _144  and  _145
REMARK   59  A    between atoms: _150  and  _152
REMARK   60  A    between atoms: _152  and  _153
REMARK   61  A    between atoms: _156  and  _158
REMARK   62  A    between atoms: _158  and  _159
REMARK   63  A    between atoms: _158  and  _161
REMARK   64  A    between atoms: _161  and  _162
REMARK   65  A    between atoms: _162  and  _163
REMARK   66  A    between atoms: _163  and  _164
REMARK   67  A    between atoms: _173  and  _175
REMARK   68  A    between atoms: _175  and  _176
REMARK   69  A    between atoms: _179  and  _181
REMARK   70  A    between atoms: _181  and  _182
REMARK   71  A    between atoms: _185  and  _187
REMARK   72  A    between atoms: _187  and  _188
REMARK   73  A    between atoms: _187  and  _190
REMARK   74  A    between atoms: _190  and  _191
REMARK   75  A    between atoms: _193  and  _195
REMARK   76  A    between atoms: _195  and  _196
REMARK   77  A    between atoms: _195  and  _198
REMARK   78  A    between atoms: _201  and  _203
REMARK   79  A    between atoms: _203  and  _204
REMARK   80  A    between atoms: _203  and  _206
REMARK   81  A    between atoms: _206  and  _207
REMARK   82  A    between atoms: _212  and  _213
REMARK   83  A    between atoms: _215  and  _217
REMARK   84  A    between atoms: _217  and  _218
REMARK   85  A    between atoms: _217  and  _220
REMARK   86  A    between atoms: _220  and  _221
REMARK   87  A    between atoms: _224  and  _226
REMARK   88  A    between atoms: _226  and  _227
REMARK   89  A    between atoms: _226  and  _229
REMARK   90  A    between atoms: _229  and  _230
REMARK   91  A    between atoms: _234  and  _235
REMARK   92  A    between atoms: _240  and  _242
REMARK   93  A    between atoms: _242  and  _243
REMARK   94  A    between atoms: _242  and  _245
REMARK   95  A    between atoms: _245  and  _246
REMARK   96  A    between atoms: _251  and  _252
REMARK   97  A    between atoms: _254  and  _256
REMARK   98  A    between atoms: _256  and  _257
REMARK   99  A    between atoms: _256  and  _259
REMARK  100  A    between atoms: _262  and  _264
REMARK  101  A    between atoms: _264  and  _265
REMARK  102  A    between atoms: _268  and  _270
REMARK  103  A    between atoms: _270  and  _271
REMARK  104  A    between atoms: _270  and  _273
REMARK  105  A    between atoms: _273  and  _274
REMARK  106  A    between atoms: _274  and  _275
REMARK  107  A    between atoms: _278  and  _280
REMARK  108  A    between atoms: _280  and  _281
REMARK  109  A    between atoms: _283  and  _285
REMARK  110  A    between atoms: _285  and  _286
REMARK  111  A    between atoms: _285  and  _288
REMARK  112  A    between atoms: _288  and  _289
REMARK  113  A    between atoms: _294  and  _295
REMARK  114  A    between atoms: _297  and  _299
REMARK  115  A    between atoms: _299  and  _300
REMARK  116  A    between atoms: _299  and  _302
REMARK  117  A    between atoms: _304  and  _306
REMARK  118  A    between atoms: _306  and  _307
REMARK                            x       y       z     vdW  Elec       q    Type
REMARK                         _______ _______ _______ _____ _____    ______ ____
ROOT
ATOM      1  O   HOH     1      28.851  33.946  -0.289  0.00  0.00    +0.000 OA
ENDROOT
TORSDOF 0
REMARK  Name = ../refined-set-2016/4nbk/4nbk_pocket.pdb
REMARK  118 active torsions:
REMARK  status: ('A' for Active; 'I' for Inactive)
REMARK    1  A    between atoms: _1  and  _3
REMARK    2  A    between atoms: _3  and  _4
REMARK    3  A    between atoms: _6  and  _8
REMARK    4  A    between atoms: _8  and  _9
REMARK    5  A    between atoms: _8  and  _11
REMARK    6  A    between atoms: _11  and  _12
REMARK    7  A    between atoms: _17  and  _19
REMARK    8  A    between atoms: _19  and  _20
REMARK    9  A    between atoms: _19  and  _22
REMARK   10  A    between atoms: _22  and  _23
REMARK   11  A    between atoms: _23  and  _24
REMARK   12  A    between atoms: _29  and  _31
REMARK   13  A    between atoms: _31  and  _32
REMARK   14  A    between atoms: _31  and  _34
REMARK   15  A    between atoms: _37  and  _39
REMARK   16  A    between atoms: _39  and  _40
REMARK   17  A    between atoms: _39  and  _42
REMARK   18  A    between atoms: _42  and  _43
REMARK   19  A    between atoms: _48  and  _49
REMARK   20  A    between atoms: _51  and  _53
REMARK   21  A    between atoms: _53  and  _54
REMARK   22  A    between atoms: _53  and  _56
REMARK   23  A    between atoms: _56  and  _57
REMARK   24  A    between atoms: _60  and  _62
REMARK   25  A    between atoms: _62  and  _63
REMARK   26  A    between atoms: _62  and  _65
REMARK   27  A    between atoms: _65  and  _66
REMARK   28  A    between atoms: _70  and  _71
REMARK   29  A    between atoms: _76  and  _78
REMARK   30  A    between atoms: _78  and  _79
REMARK   31  A    between atoms: _82  and  _84
REMARK   32  A    between atoms: _84  and  _85
REMARK   33  A    between atoms: _84  and  _87
REMARK   34  A    between atoms: _87  and  _88
REMARK   35  A    between atoms: _93  and  _94
REMARK   36  A    between atoms: _96  and  _98
REMARK   37  A    between atoms: _98  and  _99
REMARK   38  A    between atoms: _98  and  _101
REMARK   39  A    between atoms: _101  and  _102
REMARK   40  A    between atoms: _102  and  _103
REMARK   41  A    between atoms: _106  and  _108
REMARK   42  A    between atoms: _108  and  _109
REMARK   43  A    between atoms: _112  and  _114
REMARK   44  A    between atoms: _114  and  _115
REMARK   45  A    between atoms: _114  and  _117
REMARK   46  A    between atoms: _117  and  _118
REMARK   47  A    between atoms: _118  and  _119
REMARK   48  A    between atoms: _122  and  _124
REMARK   49  A    between atoms: _124  and  _125
REMARK   50  A    between atoms: _127  and  _129
REMARK   51  A    between atoms: _129  and  _130
REMARK   52  A    between atoms: _129  and  _132
REMARK   53  A    between atoms: _132  and  _133
REMARK   54  A    between atoms: _138  and  _140
REMARK   55  A    between atoms: _140  and  _141
REMARK   56  A    between atoms: _140  and  _143
REMARK   57  A    between atoms: _143  and  _144
REMARK   58  A    between atoms: _144  and  _145
REMARK   59  A    between atoms: _150  and  _152
REMARK   60  A    between atoms: _152  and  _153
REMARK   61  A    between atoms: _156  and  _158
REMARK   62  A    between atoms: _158  and  _159
REMARK   63  A    between atoms: _158  and  _161
REMARK   64  A    between atoms: _161  and  _162
REMARK   65  A    between atoms: _162  and  _163
REMARK   66  A    between atoms: _163  and  _164
REMARK   67  A    between atoms: _173  and  _175
REMARK   68  A    between atoms: _175  and  _176
REMARK   69  A    between atoms: _179  and  _181
REMARK   70  A    between atoms: _181  and  _182
REMARK   71  A    between atoms: _185  and  _187
REMARK   72  A    between atoms: _187  and  _188
REMARK   73  A    between atoms: _187  and  _190
REMARK   74  A    between atoms: _190  and  _191
REMARK   75  A    between atoms: _193  and  _195
REMARK   76  A    between atoms: _195  and  _196
REMARK   77  A    between atoms: _195  and  _198
REMARK   78  A    between atoms: _201  and  _203
REMARK   79  A    between atoms: _203  and  _204
REMARK   80  A    between atoms: _203  and  _206
REMARK   81  A    between atoms: _206  and  _207
REMARK   82  A    between atoms: _212  and  _213
REMARK   83  A    between atoms: _215  and  _217
REMARK   84  A    between atoms: _217  and  _218
REMARK   85  A    between atoms: _217  and  _220
REMARK   86  A    between atoms: _220  and  _221
REMARK   87  A    between atoms: _224  and  _226
REMARK   88  A    between atoms: _226  and  _227
REMARK   89  A    between atoms: _226  and  _229
REMARK   90  A    between atoms: _229  and  _230
REMARK   91  A    between atoms: _234  and  _235
REMARK   92  A    between atoms: _240  and  _242
REMARK   93  A    between atoms: _242  and  _243
REMARK   94  A    between atoms: _242  and  _245
REMARK   95  A    between atoms: _245  and  _246
REMARK   96  A    between atoms: _251  and  _252
REMARK   97  A    between atoms: _254  and  _256
REMARK   98  A    between atoms: _256  and  _257
REMARK   99  A    between atoms: _256  and  _259
REMARK  100  A    between atoms: _262  and  _264
REMARK  101  A    between atoms: _264  and  _265
REMARK  102  A    between atoms: _268  and  _270
REMARK  103  A    between atoms: _270  and  _271
REMARK  104  A    between atoms: _270  and  _273
REMARK  105  A    between atoms: _273  and  _274
REMARK  106  A    between atoms: _274  and  _275
REMARK  107  A    between atoms: _278  and  _280
REMARK  108  A    between atoms: _280  and  _281
REMARK  109  A    between atoms: _283  and  _285
REMARK  110  A    between atoms: _285  and  _286
REMARK  111  A    between atoms: _285  and  _288
REMARK  112  A    between atoms: _288  and  _289
REMARK  113  A    between atoms: _294  and  _295
REMARK  114  A    between atoms: _297  and  _299
REMARK  115  A    between atoms: _299  and  _300
REMARK  116  A    between atoms: _299  and  _302
REMARK  117  A    between atoms: _304  and  _306
REMARK  118  A    between atoms: _306  and  _307
REMARK                            x       y       z     vdW  Elec       q    Type
REMARK                         _______ _______ _______ _____ _____    ______ ____
ROOT
ATOM      1  O   HOH     1      16.651  29.701  10.085  0.00  0.00    +0.000 OA
ENDROOT
TORSDOF 0
REMARK  Name = ../refined-set-2016/4nbk/4nbk_pocket.pdb
REMARK  118 active torsions:
REMARK  status: ('A' for Active; 'I' for Inactive)
REMARK    1  A    between atoms: _1  and  _3
REMARK    2  A    between atoms: _3  and  _4
REMARK    3  A    between atoms: _6  and  _8
REMARK    4  A    between atoms: _8  and  _9
REMARK    5  A    between atoms: _8  and  _11
REMARK    6  A    between atoms: _11  and  _12
REMARK    7  A    between atoms: _17  and  _19
REMARK    8  A    between atoms: _19  and  _20
REMARK    9  A    between atoms: _19  and  _22
REMARK   10  A    between atoms: _22  and  _23
REMARK   11  A    between atoms: _23  and  _24
REMARK   12  A    between atoms: _29  and  _31
REMARK   13  A    between atoms: _31  and  _32
REMARK   14  A    between atoms: _31  and  _34
REMARK   15  A    between atoms: _37  and  _39
REMARK   16  A    between atoms: _39  and  _40
REMARK   17  A    between atoms: _39  and  _42
REMARK   18  A    between atoms: _42  and  _43
REMARK   19  A    between atoms: _48  and  _49
REMARK   20  A    between atoms: _51  and  _53
REMARK   21  A    between atoms: _53  and  _54
REMARK   22  A    between atoms: _53  and  _56
REMARK   23  A    between atoms: _56  and  _57
REMARK   24  A    between atoms: _60  and  _62
REMARK   25  A    between atoms: _62  and  _63
REMARK   26  A    between atoms: _62  and  _65
REMARK   27  A    between atoms: _65  and  _66
REMARK   28  A    between atoms: _70  and  _71
REMARK   29  A    between atoms: _76  and  _78
REMARK   30  A    between atoms: _78  and  _79
REMARK   31  A    between atoms: _82  and  _84
REMARK   32  A    between atoms: _84  and  _85
REMARK   33  A    between atoms: _84  and  _87
REMARK   34  A    between atoms: _87  and  _88
REMARK   35  A    between atoms: _93  and  _94
REMARK   36  A    between atoms: _96  and  _98
REMARK   37  A    between atoms: _98  and  _99
REMARK   38  A    between atoms: _98  and  _101
REMARK   39  A    between atoms: _101  and  _102
REMARK   40  A    between atoms: _102  and  _103
REMARK   41  A    between atoms: _106  and  _108
REMARK   42  A    between atoms: _108  and  _109
REMARK   43  A    between atoms: _112  and  _114
REMARK   44  A    between atoms: _114  and  _115
REMARK   45  A    between atoms: _114  and  _117
REMARK   46  A    between atoms: _117  and  _118
REMARK   47  A    between atoms: _118  and  _119
REMARK   48  A    between atoms: _122  and  _124
REMARK   49  A    between atoms: _124  and  _125
REMARK   50  A    between atoms: _127  and  _129
REMARK   51  A    between atoms: _129  and  _130
REMARK   52  A    between atoms: _129  and  _132
REMARK   53  A    between atoms: _132  and  _133
REMARK   54  A    between atoms: _138  and  _140
REMARK   55  A    between atoms: _140  and  _141
REMARK   56  A    between atoms: _140  and  _143
REMARK   57  A    between atoms: _143  and  _144
REMARK   58  A    between atoms: _144  and  _145
REMARK   59  A    between atoms: _150  and  _152
REMARK   60  A    between atoms: _152  and  _153
REMARK   61  A    between atoms: _156  and  _158
REMARK   62  A    between atoms: _158  and  _159
REMARK   63  A    between atoms: _158  and  _161
REMARK   64  A    between atoms: _161  and  _162
REMARK   65  A    between atoms: _162  and  _163
REMARK   66  A    between atoms: _163  and  _164
REMARK   67  A    between atoms: _173  and  _175
REMARK   68  A    between atoms: _175  and  _176
REMARK   69  A    between atoms: _179  and  _181
REMARK   70  A    between atoms: _181  and  _182
REMARK   71  A    between atoms: _185  and  _187
REMARK   72  A    between atoms: _187  and  _188
REMARK   73  A    between atoms: _187  and  _190
REMARK   74  A    between atoms: _190  and  _191
REMARK   75  A    between atoms: _193  and  _195
REMARK   76  A    between atoms: _195  and  _196
REMARK   77  A    between atoms: _195  and  _198
REMARK   78  A    between atoms: _201  and  _203
REMARK   79  A    between atoms: _203  and  _204
REMARK   80  A    between atoms: _203  and  _206
REMARK   81  A    between atoms: _206  and  _207
REMARK   82  A    between atoms: _212  and  _213
REMARK   83  A    between atoms: _215  and  _217
REMARK   84  A    between atoms: _217  and  _218
REMARK   85  A    between atoms: _217  and  _220
REMARK   86  A    between atoms: _220  and  _221
REMARK   87  A    between atoms: _224  and  _226
REMARK   88  A    between atoms: _226  and  _227
REMARK   89  A    between atoms: _226  and  _229
REMARK   90  A    between atoms: _229  and  _230
REMARK   91  A    between atoms: _234  and  _235
REMARK   92  A    between atoms: _240  and  _242
REMARK   93  A    between atoms: _242  and  _243
REMARK   94  A    between atoms: _242  and  _245
REMARK   95  A    between atoms: _245  and  _246
REMARK   96  A    between atoms: _251  and  _252
REMARK   97  A    between atoms: _254  and  _256
REMARK   98  A    between atoms: _256  and  _257
REMARK   99  A    between atoms: _256  and  _259
REMARK  100  A    between atoms: _262  and  _264
REMARK  101  A    between atoms: _264  and  _265
REMARK  102  A    between atoms: _268  and  _270
REMARK  103  A    between atoms: _270  and  _271
REMARK  104  A    between atoms: _270  and  _273
REMARK  105  A    between atoms: _273  and  _274
REMARK  106  A    between atoms: _274  and  _275
REMARK  107  A    between atoms: _278  and  _280
REMARK  108  A    between atoms: _280  and  _281
REMARK  109  A    between atoms: _283  and  _285
REMARK  110  A    between atoms: _285  and  _286
REMARK  111  A    between atoms: _285  and  _288
REMARK  112  A    between atoms: _288  and  _289
REMARK  113  A    between atoms: _294  and  _295
REMARK  114  A    between atoms: _297  and  _299
REMARK  115  A    between atoms: _299  and  _300
REMARK  116  A    between atoms: _299  and  _302
REMARK  117  A    between atoms: _304  and  _306
REMARK  118  A    between atoms: _306  and  _307
REMARK                            x       y       z     vdW  Elec       q    Type
REMARK                         _______ _______ _______ _____ _____    ______ ____
ROOT
ATOM      1  O   HOH     1      16.572  33.555   3.727  0.00  0.00    +0.000 OA
ENDROOT
TORSDOF 0
REMARK  Name = ../refined-set-2016/4nbk/4nbk_pocket.pdb
REMARK  118 active torsions:
REMARK  status: ('A' for Active; 'I' for Inactive)
REMARK    1  A    between atoms: _1  and  _3
REMARK    2  A    between atoms: _3  and  _4
REMARK    3  A    between atoms: _6  and  _8
REMARK    4  A    between atoms: _8  and  _9
REMARK    5  A    between atoms: _8  and  _11
REMARK    6  A    between atoms: _11  and  _12
REMARK    7  A    between atoms: _17  and  _19
REMARK    8  A    between atoms: _19  and  _20
REMARK    9  A    between atoms: _19  and  _22
REMARK   10  A    between atoms: _22  and  _23
REMARK   11  A    between atoms: _23  and  _24
REMARK   12  A    between atoms: _29  and  _31
REMARK   13  A    between atoms: _31  and  _32
REMARK   14  A    between atoms: _31  and  _34
REMARK   15  A    between atoms: _37  and  _39
REMARK   16  A    between atoms: _39  and  _40
REMARK   17  A    between atoms: _39  and  _42
REMARK   18  A    between atoms: _42  and  _43
REMARK   19  A    between atoms: _48  and  _49
REMARK   20  A    between atoms: _51  and  _53
REMARK   21  A    between atoms: _53  and  _54
REMARK   22  A    between atoms: _53  and  _56
REMARK   23  A    between atoms: _56  and  _57
REMARK   24  A    between atoms: _60  and  _62
REMARK   25  A    between atoms: _62  and  _63
REMARK   26  A    between atoms: _62  and  _65
REMARK   27  A    between atoms: _65  and  _66
REMARK   28  A    between atoms: _70  and  _71
REMARK   29  A    between atoms: _76  and  _78
REMARK   30  A    between atoms: _78  and  _79
REMARK   31  A    between atoms: _82  and  _84
REMARK   32  A    between atoms: _84  and  _85
REMARK   33  A    between atoms: _84  and  _87
REMARK   34  A    between atoms: _87  and  _88
REMARK   35  A    between atoms: _93  and  _94
REMARK   36  A    between atoms: _96  and  _98
REMARK   37  A    between atoms: _98  and  _99
REMARK   38  A    between atoms: _98  and  _101
REMARK   39  A    between atoms: _101  and  _102
REMARK   40  A    between atoms: _102  and  _103
REMARK   41  A    between atoms: _106  and  _108
REMARK   42  A    between atoms: _108  and  _109
REMARK   43  A    between atoms: _112  and  _114
REMARK   44  A    between atoms: _114  and  _115
REMARK   45  A    between atoms: _114  and  _117
REMARK   46  A    between atoms: _117  and  _118
REMARK   47  A    between atoms: _118  and  _119
REMARK   48  A    between atoms: _122  and  _124
REMARK   49  A    between atoms: _124  and  _125
REMARK   50  A    between atoms: _127  and  _129
REMARK   51  A    between atoms: _129  and  _130
REMARK   52  A    between atoms: _129  and  _132
REMARK   53  A    between atoms: _132  and  _133
REMARK   54  A    between atoms: _138  and  _140
REMARK   55  A    between atoms: _140  and  _141
REMARK   56  A    between atoms: _140  and  _143
REMARK   57  A    between atoms: _143  and  _144
REMARK   58  A    between atoms: _144  and  _145
REMARK   59  A    between atoms: _150  and  _152
REMARK   60  A    between atoms: _152  and  _153
REMARK   61  A    between atoms: _156  and  _158
REMARK   62  A    between atoms: _158  and  _159
REMARK   63  A    between atoms: _158  and  _161
REMARK   64  A    between atoms: _161  and  _162
REMARK   65  A    between atoms: _162  and  _163
REMARK   66  A    between atoms: _163  and  _164
REMARK   67  A    between atoms: _173  and  _175
REMARK   68  A    between atoms: _175  and  _176
REMARK   69  A    between atoms: _179  and  _181
REMARK   70  A    between atoms: _181  and  _182
REMARK   71  A    between atoms: _185  and  _187
REMARK   72  A    between atoms: _187  and  _188
REMARK   73  A    between atoms: _187  and  _190
REMARK   74  A    between atoms: _190  and  _191
REMARK   75  A    between atoms: _193  and  _195
REMARK   76  A    between atoms: _195  and  _196
REMARK   77  A    between atoms: _195  and  _198
REMARK   78  A    between atoms: _201  and  _203
REMARK   79  A    between atoms: _203  and  _204
REMARK   80  A    between atoms: _203  and  _206
REMARK   81  A    between atoms: _206  and  _207
REMARK   82  A    between atoms: _212  and  _213
REMARK   83  A    between atoms: _215  and  _217
REMARK   84  A    between atoms: _217  and  _218
REMARK   85  A    between atoms: _217  and  _220
REMARK   86  A    between atoms: _220  and  _221
REMARK   87  A    between atoms: _224  and  _226
REMARK   88  A    between atoms: _226  and  _227
REMARK   89  A    between atoms: _226  and  _229
REMARK   90  A    between atoms: _229  and  _230
REMARK   91  A    between atoms: _234  and  _235
REMARK   92  A    between atoms: _240  and  _242
REMARK   93  A    between atoms: _242  and  _243
REMARK   94  A    between atoms: _242  and  _245
REMARK   95  A    between atoms: _245  and  _246
REMARK   96  A    between atoms: _251  and  _252
REMARK   97  A    between atoms: _254  and  _256
REMARK   98  A    between atoms: _256  and  _257
REMARK   99  A    between atoms: _256  and  _259
REMARK  100  A    between atoms: _262  and  _264
REMARK  101  A    between atoms: _264  and  _265
REMARK  102  A    between atoms: _268  and  _270
REMARK  103  A    between atoms: _270  and  _271
REMARK  104  A    between atoms: _270  and  _273
REMARK  105  A    between atoms: _273  and  _274
REMARK  106  A    between atoms: _274  and  _275
REMARK  107  A    between atoms: _278  and  _280
REMARK  108  A    between atoms: _280  and  _281
REMARK  109  A    between atoms: _283  and  _285
REMARK  110  A    between atoms: _285  and  _286
REMARK  111  A    between atoms: _285  and  _288
REMARK  112  A    between atoms: _288  and  _289
REMARK  113  A    between atoms: _294  and  _295
REMARK  114  A    between atoms: _297  and  _299
REMARK  115  A    between atoms: _299  and  _300
REMARK  116  A    between atoms: _299  and  _302
REMARK  117  A    between atoms: _304  and  _306
REMARK  118  A    between atoms: _306  and  _307
REMARK                            x       y       z     vdW  Elec       q    Type
REMARK                         _______ _______ _______ _____ _____    ______ ____
ROOT
ATOM      1  O   HOH     1      13.809  34.698   3.964  0.00  0.00    +0.000 OA
ENDROOT
TORSDOF 0
REMARK  Name = ../refined-set-2016/4nbk/4nbk_pocket.pdb
REMARK  118 active torsions:
REMARK  status: ('A' for Active; 'I' for Inactive)
REMARK    1  A    between atoms: _1  and  _3
REMARK    2  A    between atoms: _3  and  _4
REMARK    3  A    between atoms: _6  and  _8
REMARK    4  A    between atoms: _8  and  _9
REMARK    5  A    between atoms: _8  and  _11
REMARK    6  A    between atoms: _11  and  _12
REMARK    7  A    between atoms: _17  and  _19
REMARK    8  A    between atoms: _19  and  _20
REMARK    9  A    between atoms: _19  and  _22
REMARK   10  A    between atoms: _22  and  _23
REMARK   11  A    between atoms: _23  and  _24
REMARK   12  A    between atoms: _29  and  _31
REMARK   13  A    between atoms: _31  and  _32
REMARK   14  A    between atoms: _31  and  _34
REMARK   15  A    between atoms: _37  and  _39
REMARK   16  A    between atoms: _39  and  _40
REMARK   17  A    between atoms: _39  and  _42
REMARK   18  A    between atoms: _42  and  _43
REMARK   19  A    between atoms: _48  and  _49
REMARK   20  A    between atoms: _51  and  _53
REMARK   21  A    between atoms: _53  and  _54
REMARK   22  A    between atoms: _53  and  _56
REMARK   23  A    between atoms: _56  and  _57
REMARK   24  A    between atoms: _60  and  _62
REMARK   25  A    between atoms: _62  and  _63
REMARK   26  A    between atoms: _62  and  _65
REMARK   27  A    between atoms: _65  and  _66
REMARK   28  A    between atoms: _70  and  _71
REMARK   29  A    between atoms: _76  and  _78
REMARK   30  A    between atoms: _78  and  _79
REMARK   31  A    between atoms: _82  and  _84
REMARK   32  A    between atoms: _84  and  _85
REMARK   33  A    between atoms: _84  and  _87
REMARK   34  A    between atoms: _87  and  _88
REMARK   35  A    between atoms: _93  and  _94
REMARK   36  A    between atoms: _96  and  _98
REMARK   37  A    between atoms: _98  and  _99
REMARK   38  A    between atoms: _98  and  _101
REMARK   39  A    between atoms: _101  and  _102
REMARK   40  A    between atoms: _102  and  _103
REMARK   41  A    between atoms: _106  and  _108
REMARK   42  A    between atoms: _108  and  _109
REMARK   43  A    between atoms: _112  and  _114
REMARK   44  A    between atoms: _114  and  _115
REMARK   45  A    between atoms: _114  and  _117
REMARK   46  A    between atoms: _117  and  _118
REMARK   47  A    between atoms: _118  and  _119
REMARK   48  A    between atoms: _122  and  _124
REMARK   49  A    between atoms: _124  and  _125
REMARK   50  A    between atoms: _127  and  _129
REMARK   51  A    between atoms: _129  and  _130
REMARK   52  A    between atoms: _129  and  _132
REMARK   53  A    between atoms: _132  and  _133
REMARK   54  A    between atoms: _138  and  _140
REMARK   55  A    between atoms: _140  and  _141
REMARK   56  A    between atoms: _140  and  _143
REMARK   57  A    between atoms: _143  and  _144
REMARK   58  A    between atoms: _144  and  _145
REMARK   59  A    between atoms: _150  and  _152
REMARK   60  A    between atoms: _152  and  _153
REMARK   61  A    between atoms: _156  and  _158
REMARK   62  A    between atoms: _158  and  _159
REMARK   63  A    between atoms: _158  and  _161
REMARK   64  A    between atoms: _161  and  _162
REMARK   65  A    between atoms: _162  and  _163
REMARK   66  A    between atoms: _163  and  _164
REMARK   67  A    between atoms: _173  and  _175
REMARK   68  A    between atoms: _175  and  _176
REMARK   69  A    between atoms: _179  and  _181
REMARK   70  A    between atoms: _181  and  _182
REMARK   71  A    between atoms: _185  and  _187
REMARK   72  A    between atoms: _187  and  _188
REMARK   73  A    between atoms: _187  and  _190
REMARK   74  A    between atoms: _190  and  _191
REMARK   75  A    between atoms: _193  and  _195
REMARK   76  A    between atoms: _195  and  _196
REMARK   77  A    between atoms: _195  and  _198
REMARK   78  A    between atoms: _201  and  _203
REMARK   79  A    between atoms: _203  and  _204
REMARK   80  A    between atoms: _203  and  _206
REMARK   81  A    between atoms: _206  and  _207
REMARK   82  A    between atoms: _212  and  _213
REMARK   83  A    between atoms: _215  and  _217
REMARK   84  A    between atoms: _217  and  _218
REMARK   85  A    between atoms: _217  and  _220
REMARK   86  A    between atoms: _220  and  _221
REMARK   87  A    between atoms: _224  and  _226
REMARK   88  A    between atoms: _226  and  _227
REMARK   89  A    between atoms: _226  and  _229
REMARK   90  A    between atoms: _229  and  _230
REMARK   91  A    between atoms: _234  and  _235
REMARK   92  A    between atoms: _240  and  _242
REMARK   93  A    between atoms: _242  and  _243
REMARK   94  A    between atoms: _242  and  _245
REMARK   95  A    between atoms: _245  and  _246
REMARK   96  A    between atoms: _251  and  _252
REMARK   97  A    between atoms: _254  and  _256
REMARK   98  A    between atoms: _256  and  _257
REMARK   99  A    between atoms: _256  and  _259
REMARK  100  A    between atoms: _262  and  _264
REMARK  101  A    between atoms: _264  and  _265
REMARK  102  A    between atoms: _268  and  _270
REMARK  103  A    between atoms: _270  and  _271
REMARK  104  A    between atoms: _270  and  _273
REMARK  105  A    between atoms: _273  and  _274
REMARK  106  A    between atoms: _274  and  _275
REMARK  107  A    between atoms: _278  and  _280
REMARK  108  A    between atoms: _280  and  _281
REMARK  109  A    between atoms: _283  and  _285
REMARK  110  A    between atoms: _285  and  _286
REMARK  111  A    between atoms: _285  and  _288
REMARK  112  A    between atoms: _288  and  _289
REMARK  113  A    between atoms: _294  and  _295
REMARK  114  A    between atoms: _297  and  _299
REMARK  115  A    between atoms: _299  and  _300
REMARK  116  A    between atoms: _299  and  _302
REMARK  117  A    between atoms: _304  and  _306
REMARK  118  A    between atoms: _306  and  _307
REMARK                            x       y       z     vdW  Elec       q    Type
REMARK                         _______ _______ _______ _____ _____    ______ ____
ROOT
ATOM      1  O   HOH     1      22.081  33.726   1.047  0.00  0.00    +0.000 OA
ENDROOT
TORSDOF 0
REMARK  Name = ../refined-set-2016/4nbk/4nbk_pocket.pdb
REMARK  118 active torsions:
REMARK  status: ('A' for Active; 'I' for Inactive)
REMARK    1  A    between atoms: _1  and  _3
REMARK    2  A    between atoms: _3  and  _4
REMARK    3  A    between atoms: _6  and  _8
REMARK    4  A    between atoms: _8  and  _9
REMARK    5  A    between atoms: _8  and  _11
REMARK    6  A    between atoms: _11  and  _12
REMARK    7  A    between atoms: _17  and  _19
REMARK    8  A    between atoms: _19  and  _20
REMARK    9  A    between atoms: _19  and  _22
REMARK   10  A    between atoms: _22  and  _23
REMARK   11  A    between atoms: _23  and  _24
REMARK   12  A    between atoms: _29  and  _31
REMARK   13  A    between atoms: _31  and  _32
REMARK   14  A    between atoms: _31  and  _34
REMARK   15  A    between atoms: _37  and  _39
REMARK   16  A    between atoms: _39  and  _40
REMARK   17  A    between atoms: _39  and  _42
REMARK   18  A    between atoms: _42  and  _43
REMARK   19  A    between atoms: _48  and  _49
REMARK   20  A    between atoms: _51  and  _53
REMARK   21  A    between atoms: _53  and  _54
REMARK   22  A    between atoms: _53  and  _56
REMARK   23  A    between atoms: _56  and  _57
REMARK   24  A    between atoms: _60  and  _62
REMARK   25  A    between atoms: _62  and  _63
REMARK   26  A    between atoms: _62  and  _65
REMARK   27  A    between atoms: _65  and  _66
REMARK   28  A    between atoms: _70  and  _71
REMARK   29  A    between atoms: _76  and  _78
REMARK   30  A    between atoms: _78  and  _79
REMARK   31  A    between atoms: _82  and  _84
REMARK   32  A    between atoms: _84  and  _85
REMARK   33  A    between atoms: _84  and  _87
REMARK   34  A    between atoms: _87  and  _88
REMARK   35  A    between atoms: _93  and  _94
REMARK   36  A    between atoms: _96  and  _98
REMARK   37  A    between atoms: _98  and  _99
REMARK   38  A    between atoms: _98  and  _101
REMARK   39  A    between atoms: _101  and  _102
REMARK   40  A    between atoms: _102  and  _103
REMARK   41  A    between atoms: _106  and  _108
REMARK   42  A    between atoms: _108  and  _109
REMARK   43  A    between atoms: _112  and  _114
REMARK   44  A    between atoms: _114  and  _115
REMARK   45  A    between atoms: _114  and  _117
REMARK   46  A    between atoms: _117  and  _118
REMARK   47  A    between atoms: _118  and  _119
REMARK   48  A    between atoms: _122  and  _124
REMARK   49  A    between atoms: _124  and  _125
REMARK   50  A    between atoms: _127  and  _129
REMARK   51  A    between atoms: _129  and  _130
REMARK   52  A    between atoms: _129  and  _132
REMARK   53  A    between atoms: _132  and  _133
REMARK   54  A    between atoms: _138  and  _140
REMARK   55  A    between atoms: _140  and  _141
REMARK   56  A    between atoms: _140  and  _143
REMARK   57  A    between atoms: _143  and  _144
REMARK   58  A    between atoms: _144  and  _145
REMARK   59  A    between atoms: _150  and  _152
REMARK   60  A    between atoms: _152  and  _153
REMARK   61  A    between atoms: _156  and  _158
REMARK   62  A    between atoms: _158  and  _159
REMARK   63  A    between atoms: _158  and  _161
REMARK   64  A    between atoms: _161  and  _162
REMARK   65  A    between atoms: _162  and  _163
REMARK   66  A    between atoms: _163  and  _164
REMARK   67  A    between atoms: _173  and  _175
REMARK   68  A    between atoms: _175  and  _176
REMARK   69  A    between atoms: _179  and  _181
REMARK   70  A    between atoms: _181  and  _182
REMARK   71  A    between atoms: _185  and  _187
REMARK   72  A    between atoms: _187  and  _188
REMARK   73  A    between atoms: _187  and  _190
REMARK   74  A    between atoms: _190  and  _191
REMARK   75  A    between atoms: _193  and  _195
REMARK   76  A    between atoms: _195  and  _196
REMARK   77  A    between atoms: _195  and  _198
REMARK   78  A    between atoms: _201  and  _203
REMARK   79  A    between atoms: _203  and  _204
REMARK   80  A    between atoms: _203  and  _206
REMARK   81  A    between atoms: _206  and  _207
REMARK   82  A    between atoms: _212  and  _213
REMARK   83  A    between atoms: _215  and  _217
REMARK   84  A    between atoms: _217  and  _218
REMARK   85  A    between atoms: _217  and  _220
REMARK   86  A    between atoms: _220  and  _221
REMARK   87  A    between atoms: _224  and  _226
REMARK   88  A    between atoms: _226  and  _227
REMARK   89  A    between atoms: _226  and  _229
REMARK   90  A    between atoms: _229  and  _230
REMARK   91  A    between atoms: _234  and  _235
REMARK   92  A    between atoms: _240  and  _242
REMARK   93  A    between atoms: _242  and  _243
REMARK   94  A    between atoms: _242  and  _245
REMARK   95  A    between atoms: _245  and  _246
REMARK   96  A    between atoms: _251  and  _252
REMARK   97  A    between atoms: _254  and  _256
REMARK   98  A    between atoms: _256  and  _257
REMARK   99  A    between atoms: _256  and  _259
REMARK  100  A    between atoms: _262  and  _264
REMARK  101  A    between atoms: _264  and  _265
REMARK  102  A    between atoms: _268  and  _270
REMARK  103  A    between atoms: _270  and  _271
REMARK  104  A    between atoms: _270  and  _273
REMARK  105  A    between atoms: _273  and  _274
REMARK  106  A    between atoms: _274  and  _275
REMARK  107  A    between atoms: _278  and  _280
REMARK  108  A    between atoms: _280  and  _281
REMARK  109  A    between atoms: _283  and  _285
REMARK  110  A    between atoms: _285  and  _286
REMARK  111  A    between atoms: _285  and  _288
REMARK  112  A    between atoms: _288  and  _289
REMARK  113  A    between atoms: _294  and  _295
REMARK  114  A    between atoms: _297  and  _299
REMARK  115  A    between atoms: _299  and  _300
REMARK  116  A    between atoms: _299  and  _302
REMARK  117  A    between atoms: _304  and  _306
REMARK  118  A    between atoms: _306  and  _307
REMARK                            x       y       z     vdW  Elec       q    Type
REMARK                         _______ _______ _______ _____ _____    ______ ____
ROOT
ATOM      1  O   HOH     1      21.683  37.371   8.546  0.00  0.00    +0.000 OA
ENDROOT
TORSDOF 0
REMARK  Name = ../refined-set-2016/4nbk/4nbk_pocket.pdb
REMARK  118 active torsions:
REMARK  status: ('A' for Active; 'I' for Inactive)
REMARK    1  A    between atoms: _1  and  _3
REMARK    2  A    between atoms: _3  and  _4
REMARK    3  A    between atoms: _6  and  _8
REMARK    4  A    between atoms: _8  and  _9
REMARK    5  A    between atoms: _8  and  _11
REMARK    6  A    between atoms: _11  and  _12
REMARK    7  A    between atoms: _17  and  _19
REMARK    8  A    between atoms: _19  and  _20
REMARK    9  A    between atoms: _19  and  _22
REMARK   10  A    between atoms: _22  and  _23
REMARK   11  A    between atoms: _23  and  _24
REMARK   12  A    between atoms: _29  and  _31
REMARK   13  A    between atoms: _31  and  _32
REMARK   14  A    between atoms: _31  and  _34
REMARK   15  A    between atoms: _37  and  _39
REMARK   16  A    between atoms: _39  and  _40
REMARK   17  A    between atoms: _39  and  _42
REMARK   18  A    between atoms: _42  and  _43
REMARK   19  A    between atoms: _48  and  _49
REMARK   20  A    between atoms: _51  and  _53
REMARK   21  A    between atoms: _53  and  _54
REMARK   22  A    between atoms: _53  and  _56
REMARK   23  A    between atoms: _56  and  _57
REMARK   24  A    between atoms: _60  and  _62
REMARK   25  A    between atoms: _62  and  _63
REMARK   26  A    between atoms: _62  and  _65
REMARK   27  A    between atoms: _65  and  _66
REMARK   28  A    between atoms: _70  and  _71
REMARK   29  A    between atoms: _76  and  _78
REMARK   30  A    between atoms: _78  and  _79
REMARK   31  A    between atoms: _82  and  _84
REMARK   32  A    between atoms: _84  and  _85
REMARK   33  A    between atoms: _84  and  _87
REMARK   34  A    between atoms: _87  and  _88
REMARK   35  A    between atoms: _93  and  _94
REMARK   36  A    between atoms: _96  and  _98
REMARK   37  A    between atoms: _98  and  _99
REMARK   38  A    between atoms: _98  and  _101
REMARK   39  A    between atoms: _101  and  _102
REMARK   40  A    between atoms: _102  and  _103
REMARK   41  A    between atoms: _106  and  _108
REMARK   42  A    between atoms: _108  and  _109
REMARK   43  A    between atoms: _112  and  _114
REMARK   44  A    between atoms: _114  and  _115
REMARK   45  A    between atoms: _114  and  _117
REMARK   46  A    between atoms: _117  and  _118
REMARK   47  A    between atoms: _118  and  _119
REMARK   48  A    between atoms: _122  and  _124
REMARK   49  A    between atoms: _124  and  _125
REMARK   50  A    between atoms: _127  and  _129
REMARK   51  A    between atoms: _129  and  _130
REMARK   52  A    between atoms: _129  and  _132
REMARK   53  A    between atoms: _132  and  _133
REMARK   54  A    between atoms: _138  and  _140
REMARK   55  A    between atoms: _140  and  _141
REMARK   56  A    between atoms: _140  and  _143
REMARK   57  A    between atoms: _143  and  _144
REMARK   58  A    between atoms: _144  and  _145
REMARK   59  A    between atoms: _150  and  _152
REMARK   60  A    between atoms: _152  and  _153
REMARK   61  A    between atoms: _156  and  _158
REMARK   62  A    between atoms: _158  and  _159
REMARK   63  A    between atoms: _158  and  _161
REMARK   64  A    between atoms: _161  and  _162
REMARK   65  A    between atoms: _162  and  _163
REMARK   66  A    between atoms: _163  and  _164
REMARK   67  A    between atoms: _173  and  _175
REMARK   68  A    between atoms: _175  and  _176
REMARK   69  A    between atoms: _179  and  _181
REMARK   70  A    between atoms: _181  and  _182
REMARK   71  A    between atoms: _185  and  _187
REMARK   72  A    between atoms: _187  and  _188
REMARK   73  A    between atoms: _187  and  _190
REMARK   74  A    between atoms: _190  and  _191
REMARK   75  A    between atoms: _193  and  _195
REMARK   76  A    between atoms: _195  and  _196
REMARK   77  A    between atoms: _195  and  _198
REMARK   78  A    between atoms: _201  and  _203
REMARK   79  A    between atoms: _203  and  _204
REMARK   80  A    between atoms: _203  and  _206
REMARK   81  A    between atoms: _206  and  _207
REMARK   82  A    between atoms: _212  and  _213
REMARK   83  A    between atoms: _215  and  _217
REMARK   84  A    between atoms: _217  and  _218
REMARK   85  A    between atoms: _217  and  _220
REMARK   86  A    between atoms: _220  and  _221
REMARK   87  A    between atoms: _224  and  _226
REMARK   88  A    between atoms: _226  and  _227
REMARK   89  A    between atoms: _226  and  _229
REMARK   90  A    between atoms: _229  and  _230
REMARK   91  A    between atoms: _234  and  _235
REMARK   92  A    between atoms: _240  and  _242
REMARK   93  A    between atoms: _242  and  _243
REMARK   94  A    between atoms: _242  and  _245
REMARK   95  A    between atoms: _245  and  _246
REMARK   96  A    between atoms: _251  and  _252
REMARK   97  A    between atoms: _254  and  _256
REMARK   98  A    between atoms: _256  and  _257
REMARK   99  A    between atoms: _256  and  _259
REMARK  100  A    between atoms: _262  and  _264
REMARK  101  A    between atoms: _264  and  _265
REMARK  102  A    between atoms: _268  and  _270
REMARK  103  A    between atoms: _270  and  _271
REMARK  104  A    between atoms: _270  and  _273
REMARK  105  A    between atoms: _273  and  _274
REMARK  106  A    between atoms: _274  and  _275
REMARK  107  A    between atoms: _278  and  _280
REMARK  108  A    between atoms: _280  and  _281
REMARK  109  A    between atoms: _283  and  _285
REMARK  110  A    between atoms: _285  and  _286
REMARK  111  A    between atoms: _285  and  _288
REMARK  112  A    between atoms: _288  and  _289
REMARK  113  A    between atoms: _294  and  _295
REMARK  114  A    between atoms: _297  and  _299
REMARK  115  A    between atoms: _299  and  _300
REMARK  116  A    between atoms: _299  and  _302
REMARK  117  A    between atoms: _304  and  _306
REMARK  118  A    between atoms: _306  and  _307
REMARK                            x       y       z     vdW  Elec       q    Type
REMARK                         _______ _______ _______ _____ _____    ______ ____
ROOT
ATOM      1  O   HOH     1      17.486  27.452   8.465  0.00  0.00    +0.000 OA
ENDROOT
TORSDOF 0
REMARK  Name = ../refined-set-2016/4nbk/4nbk_pocket.pdb
REMARK  118 active torsions:
REMARK  status: ('A' for Active; 'I' for Inactive)
REMARK    1  A    between atoms: _1  and  _3
REMARK    2  A    between atoms: _3  and  _4
REMARK    3  A    between atoms: _6  and  _8
REMARK    4  A    between atoms: _8  and  _9
REMARK    5  A    between atoms: _8  and  _11
REMARK    6  A    between atoms: _11  and  _12
REMARK    7  A    between atoms: _17  and  _19
REMARK    8  A    between atoms: _19  and  _20
REMARK    9  A    between atoms: _19  and  _22
REMARK   10  A    between atoms: _22  and  _23
REMARK   11  A    between atoms: _23  and  _24
REMARK   12  A    between atoms: _29  and  _31
REMARK   13  A    between atoms: _31  and  _32
REMARK   14  A    between atoms: _31  and  _34
REMARK   15  A    between atoms: _37  and  _39
REMARK   16  A    between atoms: _39  and  _40
REMARK   17  A    between atoms: _39  and  _42
REMARK   18  A    between atoms: _42  and  _43
REMARK   19  A    between atoms: _48  and  _49
REMARK   20  A    between atoms: _51  and  _53
REMARK   21  A    between atoms: _53  and  _54
REMARK   22  A    between atoms: _53  and  _56
REMARK   23  A    between atoms: _56  and  _57
REMARK   24  A    between atoms: _60  and  _62
REMARK   25  A    between atoms: _62  and  _63
REMARK   26  A    between atoms: _62  and  _65
REMARK   27  A    between atoms: _65  and  _66
REMARK   28  A    between atoms: _70  and  _71
REMARK   29  A    between atoms: _76  and  _78
REMARK   30  A    between atoms: _78  and  _79
REMARK   31  A    between atoms: _82  and  _84
REMARK   32  A    between atoms: _84  and  _85
REMARK   33  A    between atoms: _84  and  _87
REMARK   34  A    between atoms: _87  and  _88
REMARK   35  A    between atoms: _93  and  _94
REMARK   36  A    between atoms: _96  and  _98
REMARK   37  A    between atoms: _98  and  _99
REMARK   38  A    between atoms: _98  and  _101
REMARK   39  A    between atoms: _101  and  _102
REMARK   40  A    between atoms: _102  and  _103
REMARK   41  A    between atoms: _106  and  _108
REMARK   42  A    between atoms: _108  and  _109
REMARK   43  A    between atoms: _112  and  _114
REMARK   44  A    between atoms: _114  and  _115
REMARK   45  A    between atoms: _114  and  _117
REMARK   46  A    between atoms: _117  and  _118
REMARK   47  A    between atoms: _118  and  _119
REMARK   48  A    between atoms: _122  and  _124
REMARK   49  A    between atoms: _124  and  _125
REMARK   50  A    between atoms: _127  and  _129
REMARK   51  A    between atoms: _129  and  _130
REMARK   52  A    between atoms: _129  and  _132
REMARK   53  A    between atoms: _132  and  _133
REMARK   54  A    between atoms: _138  and  _140
REMARK   55  A    between atoms: _140  and  _141
REMARK   56  A    between atoms: _140  and  _143
REMARK   57  A    between atoms: _143  and  _144
REMARK   58  A    between atoms: _144  and  _145
REMARK   59  A    between atoms: _150  and  _152
REMARK   60  A    between atoms: _152  and  _153
REMARK   61  A    between atoms: _156  and  _158
REMARK   62  A    between atoms: _158  and  _159
REMARK   63  A    between atoms: _158  and  _161
REMARK   64  A    between atoms: _161  and  _162
REMARK   65  A    between atoms: _162  and  _163
REMARK   66  A    between atoms: _163  and  _164
REMARK   67  A    between atoms: _173  and  _175
REMARK   68  A    between atoms: _175  and  _176
REMARK   69  A    between atoms: _179  and  _181
REMARK   70  A    between atoms: _181  and  _182
REMARK   71  A    between atoms: _185  and  _187
REMARK   72  A    between atoms: _187  and  _188
REMARK   73  A    between atoms: _187  and  _190
REMARK   74  A    between atoms: _190  and  _191
REMARK   75  A    between atoms: _193  and  _195
REMARK   76  A    between atoms: _195  and  _196
REMARK   77  A    between atoms: _195  and  _198
REMARK   78  A    between atoms: _201  and  _203
REMARK   79  A    between atoms: _203  and  _204
REMARK   80  A    between atoms: _203  and  _206
REMARK   81  A    between atoms: _206  and  _207
REMARK   82  A    between atoms: _212  and  _213
REMARK   83  A    between atoms: _215  and  _217
REMARK   84  A    between atoms: _217  and  _218
REMARK   85  A    between atoms: _217  and  _220
REMARK   86  A    between atoms: _220  and  _221
REMARK   87  A    between atoms: _224  and  _226
REMARK   88  A    between atoms: _226  and  _227
REMARK   89  A    between atoms: _226  and  _229
REMARK   90  A    between atoms: _229  and  _230
REMARK   91  A    between atoms: _234  and  _235
REMARK   92  A    between atoms: _240  and  _242
REMARK   93  A    between atoms: _242  and  _243
REMARK   94  A    between atoms: _242  and  _245
REMARK   95  A    between atoms: _245  and  _246
REMARK   96  A    between atoms: _251  and  _252
REMARK   97  A    between atoms: _254  and  _256
REMARK   98  A    between atoms: _256  and  _257
REMARK   99  A    between atoms: _256  and  _259
REMARK  100  A    between atoms: _262  and  _264
REMARK  101  A    between atoms: _264  and  _265
REMARK  102  A    between atoms: _268  and  _270
REMARK  103  A    between atoms: _270  and  _271
REMARK  104  A    between atoms: _270  and  _273
REMARK  105  A    between atoms: _273  and  _274
REMARK  106  A    between atoms: _274  and  _275
REMARK  107  A    between atoms: _278  and  _280
REMARK  108  A    between atoms: _280  and  _281
REMARK  109  A    between atoms: _283  and  _285
REMARK  110  A    between atoms: _285  and  _286
REMARK  111  A    between atoms: _285  and  _288
REMARK  112  A    between atoms: _288  and  _289
REMARK  113  A    between atoms: _294  and  _295
REMARK  114  A    between atoms: _297  and  _299
REMARK  115  A    between atoms: _299  and  _300
REMARK  116  A    between atoms: _299  and  _302
REMARK  117  A    between atoms: _304  and  _306
REMARK  118  A    between atoms: _306  and  _307
REMARK                            x       y       z     vdW  Elec       q    Type
REMARK                         _______ _______ _______ _____ _____    ______ ____
ROOT
ATOM      1  O   HOH     1      18.055  29.829   2.199  0.00  0.00    +0.000 OA
ENDROOT
TORSDOF 0
REMARK  Name = ../refined-set-2016/4nbk/4nbk_pocket.pdb
REMARK  118 active torsions:
REMARK  status: ('A' for Active; 'I' for Inactive)
REMARK    1  A    between atoms: _1  and  _3
REMARK    2  A    between atoms: _3  and  _4
REMARK    3  A    between atoms: _6  and  _8
REMARK    4  A    between atoms: _8  and  _9
REMARK    5  A    between atoms: _8  and  _11
REMARK    6  A    between atoms: _11  and  _12
REMARK    7  A    between atoms: _17  and  _19
REMARK    8  A    between atoms: _19  and  _20
REMARK    9  A    between atoms: _19  and  _22
REMARK   10  A    between atoms: _22  and  _23
REMARK   11  A    between atoms: _23  and  _24
REMARK   12  A    between atoms: _29  and  _31
REMARK   13  A    between atoms: _31  and  _32
REMARK   14  A    between atoms: _31  and  _34
REMARK   15  A    between atoms: _37  and  _39
REMARK   16  A    between atoms: _39  and  _40
REMARK   17  A    between atoms: _39  and  _42
REMARK   18  A    between atoms: _42  and  _43
REMARK   19  A    between atoms: _48  and  _49
REMARK   20  A    between atoms: _51  and  _53
REMARK   21  A    between atoms: _53  and  _54
REMARK   22  A    between atoms: _53  and  _56
REMARK   23  A    between atoms: _56  and  _57
REMARK   24  A    between atoms: _60  and  _62
REMARK   25  A    between atoms: _62  and  _63
REMARK   26  A    between atoms: _62  and  _65
REMARK   27  A    between atoms: _65  and  _66
REMARK   28  A    between atoms: _70  and  _71
REMARK   29  A    between atoms: _76  and  _78
REMARK   30  A    between atoms: _78  and  _79
REMARK   31  A    between atoms: _82  and  _84
REMARK   32  A    between atoms: _84  and  _85
REMARK   33  A    between atoms: _84  and  _87
REMARK   34  A    between atoms: _87  and  _88
REMARK   35  A    between atoms: _93  and  _94
REMARK   36  A    between atoms: _96  and  _98
REMARK   37  A    between atoms: _98  and  _99
REMARK   38  A    between atoms: _98  and  _101
REMARK   39  A    between atoms: _101  and  _102
REMARK   40  A    between atoms: _102  and  _103
REMARK   41  A    between atoms: _106  and  _108
REMARK   42  A    between atoms: _108  and  _109
REMARK   43  A    between atoms: _112  and  _114
REMARK   44  A    between atoms: _114  and  _115
REMARK   45  A    between atoms: _114  and  _117
REMARK   46  A    between atoms: _117  and  _118
REMARK   47  A    between atoms: _118  and  _119
REMARK   48  A    between atoms: _122  and  _124
REMARK   49  A    between atoms: _124  and  _125
REMARK   50  A    between atoms: _127  and  _129
REMARK   51  A    between atoms: _129  and  _130
REMARK   52  A    between atoms: _129  and  _132
REMARK   53  A    between atoms: _132  and  _133
REMARK   54  A    between atoms: _138  and  _140
REMARK   55  A    between atoms: _140  and  _141
REMARK   56  A    between atoms: _140  and  _143
REMARK   57  A    between atoms: _143  and  _144
REMARK   58  A    between atoms: _144  and  _145
REMARK   59  A    between atoms: _150  and  _152
REMARK   60  A    between atoms: _152  and  _153
REMARK   61  A    between atoms: _156  and  _158
REMARK   62  A    between atoms: _158  and  _159
REMARK   63  A    between atoms: _158  and  _161
REMARK   64  A    between atoms: _161  and  _162
REMARK   65  A    between atoms: _162  and  _163
REMARK   66  A    between atoms: _163  and  _164
REMARK   67  A    between atoms: _173  and  _175
REMARK   68  A    between atoms: _175  and  _176
REMARK   69  A    between atoms: _179  and  _181
REMARK   70  A    between atoms: _181  and  _182
REMARK   71  A    between atoms: _185  and  _187
REMARK   72  A    between atoms: _187  and  _188
REMARK   73  A    between atoms: _187  and  _190
REMARK   74  A    between atoms: _190  and  _191
REMARK   75  A    between atoms: _193  and  _195
REMARK   76  A    between atoms: _195  and  _196
REMARK   77  A    between atoms: _195  and  _198
REMARK   78  A    between atoms: _201  and  _203
REMARK   79  A    between atoms: _203  and  _204
REMARK   80  A    between atoms: _203  and  _206
REMARK   81  A    between atoms: _206  and  _207
REMARK   82  A    between atoms: _212  and  _213
REMARK   83  A    between atoms: _215  and  _217
REMARK   84  A    between atoms: _217  and  _218
REMARK   85  A    between atoms: _217  and  _220
REMARK   86  A    between atoms: _220  and  _221
REMARK   87  A    between atoms: _224  and  _226
REMARK   88  A    between atoms: _226  and  _227
REMARK   89  A    between atoms: _226  and  _229
REMARK   90  A    between atoms: _229  and  _230
REMARK   91  A    between atoms: _234  and  _235
REMARK   92  A    between atoms: _240  and  _242
REMARK   93  A    between atoms: _242  and  _243
REMARK   94  A    between atoms: _242  and  _245
REMARK   95  A    between atoms: _245  and  _246
REMARK   96  A    between atoms: _251  and  _252
REMARK   97  A    between atoms: _254  and  _256
REMARK   98  A    between atoms: _256  and  _257
REMARK   99  A    between atoms: _256  and  _259
REMARK  100  A    between atoms: _262  and  _264
REMARK  101  A    between atoms: _264  and  _265
REMARK  102  A    between atoms: _268  and  _270
REMARK  103  A    between atoms: _270  and  _271
REMARK  104  A    between atoms: _270  and  _273
REMARK  105  A    between atoms: _273  and  _274
REMARK  106  A    between atoms: _274  and  _275
REMARK  107  A    between atoms: _278  and  _280
REMARK  108  A    between atoms: _280  and  _281
REMARK  109  A    between atoms: _283  and  _285
REMARK  110  A    between atoms: _285  and  _286
REMARK  111  A    between atoms: _285  and  _288
REMARK  112  A    between atoms: _288  and  _289
REMARK  113  A    between atoms: _294  and  _295
REMARK  114  A    between atoms: _297  and  _299
REMARK  115  A    between atoms: _299  and  _300
REMARK  116  A    between atoms: _299  and  _302
REMARK  117  A    between atoms: _304  and  _306
REMARK  118  A    between atoms: _306  and  _307
REMARK                            x       y       z     vdW  Elec       q    Type
REMARK                         _______ _______ _______ _____ _____    ______ ____
ROOT
ATOM      1  O   HOH     1      16.715  31.656   1.708  0.00  0.00    +0.000 OA
ENDROOT
TORSDOF 0
REMARK  Name = ../refined-set-2016/4nbk/4nbk_pocket.pdb
REMARK  118 active torsions:
REMARK  status: ('A' for Active; 'I' for Inactive)
REMARK    1  A    between atoms: _1  and  _3
REMARK    2  A    between atoms: _3  and  _4
REMARK    3  A    between atoms: _6  and  _8
REMARK    4  A    between atoms: _8  and  _9
REMARK    5  A    between atoms: _8  and  _11
REMARK    6  A    between atoms: _11  and  _12
REMARK    7  A    between atoms: _17  and  _19
REMARK    8  A    between atoms: _19  and  _20
REMARK    9  A    between atoms: _19  and  _22
REMARK   10  A    between atoms: _22  and  _23
REMARK   11  A    between atoms: _23  and  _24
REMARK   12  A    between atoms: _29  and  _31
REMARK   13  A    between atoms: _31  and  _32
REMARK   14  A    between atoms: _31  and  _34
REMARK   15  A    between atoms: _37  and  _39
REMARK   16  A    between atoms: _39  and  _40
REMARK   17  A    between atoms: _39  and  _42
REMARK   18  A    between atoms: _42  and  _43
REMARK   19  A    between atoms: _48  and  _49
REMARK   20  A    between atoms: _51  and  _53
REMARK   21  A    between atoms: _53  and  _54
REMARK   22  A    between atoms: _53  and  _56
REMARK   23  A    between atoms: _56  and  _57
REMARK   24  A    between atoms: _60  and  _62
REMARK   25  A    between atoms: _62  and  _63
REMARK   26  A    between atoms: _62  and  _65
REMARK   27  A    between atoms: _65  and  _66
REMARK   28  A    between atoms: _70  and  _71
REMARK   29  A    between atoms: _76  and  _78
REMARK   30  A    between atoms: _78  and  _79
REMARK   31  A    between atoms: _82  and  _84
REMARK   32  A    between atoms: _84  and  _85
REMARK   33  A    between atoms: _84  and  _87
REMARK   34  A    between atoms: _87  and  _88
REMARK   35  A    between atoms: _93  and  _94
REMARK   36  A    between atoms: _96  and  _98
REMARK   37  A    between atoms: _98  and  _99
REMARK   38  A    between atoms: _98  and  _101
REMARK   39  A    between atoms: _101  and  _102
REMARK   40  A    between atoms: _102  and  _103
REMARK   41  A    between atoms: _106  and  _108
REMARK   42  A    between atoms: _108  and  _109
REMARK   43  A    between atoms: _112  and  _114
REMARK   44  A    between atoms: _114  and  _115
REMARK   45  A    between atoms: _114  and  _117
REMARK   46  A    between atoms: _117  and  _118
REMARK   47  A    between atoms: _118  and  _119
REMARK   48  A    between atoms: _122  and  _124
REMARK   49  A    between atoms: _124  and  _125
REMARK   50  A    between atoms: _127  and  _129
REMARK   51  A    between atoms: _129  and  _130
REMARK   52  A    between atoms: _129  and  _132
REMARK   53  A    between atoms: _132  and  _133
REMARK   54  A    between atoms: _138  and  _140
REMARK   55  A    between atoms: _140  and  _141
REMARK   56  A    between atoms: _140  and  _143
REMARK   57  A    between atoms: _143  and  _144
REMARK   58  A    between atoms: _144  and  _145
REMARK   59  A    between atoms: _150  and  _152
REMARK   60  A    between atoms: _152  and  _153
REMARK   61  A    between atoms: _156  and  _158
REMARK   62  A    between atoms: _158  and  _159
REMARK   63  A    between atoms: _158  and  _161
REMARK   64  A    between atoms: _161  and  _162
REMARK   65  A    between atoms: _162  and  _163
REMARK   66  A    between atoms: _163  and  _164
REMARK   67  A    between atoms: _173  and  _175
REMARK   68  A    between atoms: _175  and  _176
REMARK   69  A    between atoms: _179  and  _181
REMARK   70  A    between atoms: _181  and  _182
REMARK   71  A    between atoms: _185  and  _187
REMARK   72  A    between atoms: _187  and  _188
REMARK   73  A    between atoms: _187  and  _190
REMARK   74  A    between atoms: _190  and  _191
REMARK   75  A    between atoms: _193  and  _195
REMARK   76  A    between atoms: _195  and  _196
REMARK   77  A    between atoms: _195  and  _198
REMARK   78  A    between atoms: _201  and  _203
REMARK   79  A    between atoms: _203  and  _204
REMARK   80  A    between atoms: _203  and  _206
REMARK   81  A    between atoms: _206  and  _207
REMARK   82  A    between atoms: _212  and  _213
REMARK   83  A    between atoms: _215  and  _217
REMARK   84  A    between atoms: _217  and  _218
REMARK   85  A    between atoms: _217  and  _220
REMARK   86  A    between atoms: _220  and  _221
REMARK   87  A    between atoms: _224  and  _226
REMARK   88  A    between atoms: _226  and  _227
REMARK   89  A    between atoms: _226  and  _229
REMARK   90  A    between atoms: _229  and  _230
REMARK   91  A    between atoms: _234  and  _235
REMARK   92  A    between atoms: _240  and  _242
REMARK   93  A    between atoms: _242  and  _243
REMARK   94  A    between atoms: _242  and  _245
REMARK   95  A    between atoms: _245  and  _246
REMARK   96  A    between atoms: _251  and  _252
REMARK   97  A    between atoms: _254  and  _256
REMARK   98  A    between atoms: _256  and  _257
REMARK   99  A    between atoms: _256  and  _259
REMARK  100  A    between atoms: _262  and  _264
REMARK  101  A    between atoms: _264  and  _265
REMARK  102  A    between atoms: _268  and  _270
REMARK  103  A    between atoms: _270  and  _271
REMARK  104  A    between atoms: _270  and  _273
REMARK  105  A    between atoms: _273  and  _274
REMARK  106  A    between atoms: _274  and  _275
REMARK  107  A    between atoms: _278  and  _280
REMARK  108  A    between atoms: _280  and  _281
REMARK  109  A    between atoms: _283  and  _285
REMARK  110  A    between atoms: _285  and  _286
REMARK  111  A    between atoms: _285  and  _288
REMARK  112  A    between atoms: _288  and  _289
REMARK  113  A    between atoms: _294  and  _295
REMARK  114  A    between atoms: _297  and  _299
REMARK  115  A    between atoms: _299  and  _300
REMARK  116  A    between atoms: _299  and  _302
REMARK  117  A    between atoms: _304  and  _306
REMARK  118  A    between atoms: _306  and  _307
REMARK                            x       y       z     vdW  Elec       q    Type
REMARK                         _______ _______ _______ _____ _____    ______ ____
ROOT
ATOM      1  O   HOH     1      30.181  29.480   4.493  0.00  0.00    +0.000 OA
ENDROOT
TORSDOF 0
REMARK  Name = ../refined-set-2016/4nbk/4nbk_pocket.pdb
REMARK  118 active torsions:
REMARK  status: ('A' for Active; 'I' for Inactive)
REMARK    1  A    between atoms: _1  and  _3
REMARK    2  A    between atoms: _3  and  _4
REMARK    3  A    between atoms: _6  and  _8
REMARK    4  A    between atoms: _8  and  _9
REMARK    5  A    between atoms: _8  and  _11
REMARK    6  A    between atoms: _11  and  _12
REMARK    7  A    between atoms: _17  and  _19
REMARK    8  A    between atoms: _19  and  _20
REMARK    9  A    between atoms: _19  and  _22
REMARK   10  A    between atoms: _22  and  _23
REMARK   11  A    between atoms: _23  and  _24
REMARK   12  A    between atoms: _29  and  _31
REMARK   13  A    between atoms: _31  and  _32
REMARK   14  A    between atoms: _31  and  _34
REMARK   15  A    between atoms: _37  and  _39
REMARK   16  A    between atoms: _39  and  _40
REMARK   17  A    between atoms: _39  and  _42
REMARK   18  A    between atoms: _42  and  _43
REMARK   19  A    between atoms: _48  and  _49
REMARK   20  A    between atoms: _51  and  _53
REMARK   21  A    between atoms: _53  and  _54
REMARK   22  A    between atoms: _53  and  _56
REMARK   23  A    between atoms: _56  and  _57
REMARK   24  A    between atoms: _60  and  _62
REMARK   25  A    between atoms: _62  and  _63
REMARK   26  A    between atoms: _62  and  _65
REMARK   27  A    between atoms: _65  and  _66
REMARK   28  A    between atoms: _70  and  _71
REMARK   29  A    between atoms: _76  and  _78
REMARK   30  A    between atoms: _78  and  _79
REMARK   31  A    between atoms: _82  and  _84
REMARK   32  A    between atoms: _84  and  _85
REMARK   33  A    between atoms: _84  and  _87
REMARK   34  A    between atoms: _87  and  _88
REMARK   35  A    between atoms: _93  and  _94
REMARK   36  A    between atoms: _96  and  _98
REMARK   37  A    between atoms: _98  and  _99
REMARK   38  A    between atoms: _98  and  _101
REMARK   39  A    between atoms: _101  and  _102
REMARK   40  A    between atoms: _102  and  _103
REMARK   41  A    between atoms: _106  and  _108
REMARK   42  A    between atoms: _108  and  _109
REMARK   43  A    between atoms: _112  and  _114
REMARK   44  A    between atoms: _114  and  _115
REMARK   45  A    between atoms: _114  and  _117
REMARK   46  A    between atoms: _117  and  _118
REMARK   47  A    between atoms: _118  and  _119
REMARK   48  A    between atoms: _122  and  _124
REMARK   49  A    between atoms: _124  and  _125
REMARK   50  A    between atoms: _127  and  _129
REMARK   51  A    between atoms: _129  and  _130
REMARK   52  A    between atoms: _129  and  _132
REMARK   53  A    between atoms: _132  and  _133
REMARK   54  A    between atoms: _138  and  _140
REMARK   55  A    between atoms: _140  and  _141
REMARK   56  A    between atoms: _140  and  _143
REMARK   57  A    between atoms: _143  and  _144
REMARK   58  A    between atoms: _144  and  _145
REMARK   59  A    between atoms: _150  and  _152
REMARK   60  A    between atoms: _152  and  _153
REMARK   61  A    between atoms: _156  and  _158
REMARK   62  A    between atoms: _158  and  _159
REMARK   63  A    between atoms: _158  and  _161
REMARK   64  A    between atoms: _161  and  _162
REMARK   65  A    between atoms: _162  and  _163
REMARK   66  A    between atoms: _163  and  _164
REMARK   67  A    between atoms: _173  and  _175
REMARK   68  A    between atoms: _175  and  _176
REMARK   69  A    between atoms: _179  and  _181
REMARK   70  A    between atoms: _181  and  _182
REMARK   71  A    between atoms: _185  and  _187
REMARK   72  A    between atoms: _187  and  _188
REMARK   73  A    between atoms: _187  and  _190
REMARK   74  A    between atoms: _190  and  _191
REMARK   75  A    between atoms: _193  and  _195
REMARK   76  A    between atoms: _195  and  _196
REMARK   77  A    between atoms: _195  and  _198
REMARK   78  A    between atoms: _201  and  _203
REMARK   79  A    between atoms: _203  and  _204
REMARK   80  A    between atoms: _203  and  _206
REMARK   81  A    between atoms: _206  and  _207
REMARK   82  A    between atoms: _212  and  _213
REMARK   83  A    between atoms: _215  and  _217
REMARK   84  A    between atoms: _217  and  _218
REMARK   85  A    between atoms: _217  and  _220
REMARK   86  A    between atoms: _220  and  _221
REMARK   87  A    between atoms: _224  and  _226
REMARK   88  A    between atoms: _226  and  _227
REMARK   89  A    between atoms: _226  and  _229
REMARK   90  A    between atoms: _229  and  _230
REMARK   91  A    between atoms: _234  and  _235
REMARK   92  A    between atoms: _240  and  _242
REMARK   93  A    between atoms: _242  and  _243
REMARK   94  A    between atoms: _242  and  _245
REMARK   95  A    between atoms: _245  and  _246
REMARK   96  A    between atoms: _251  and  _252
REMARK   97  A    between atoms: _254  and  _256
REMARK   98  A    between atoms: _256  and  _257
REMARK   99  A    between atoms: _256  and  _259
REMARK  100  A    between atoms: _262  and  _264
REMARK  101  A    between atoms: _264  and  _265
REMARK  102  A    between atoms: _268  and  _270
REMARK  103  A    between atoms: _270  and  _271
REMARK  104  A    between atoms: _270  and  _273
REMARK  105  A    between atoms: _273  and  _274
REMARK  106  A    between atoms: _274  and  _275
REMARK  107  A    between atoms: _278  and  _280
REMARK  108  A    between atoms: _280  and  _281
REMARK  109  A    between atoms: _283  and  _285
REMARK  110  A    between atoms: _285  and  _286
REMARK  111  A    between atoms: _285  and  _288
REMARK  112  A    between atoms: _288  and  _289
REMARK  113  A    between atoms: _294  and  _295
REMARK  114  A    between atoms: _297  and  _299
REMARK  115  A    between atoms: _299  and  _300
REMARK  116  A    between atoms: _299  and  _302
REMARK  117  A    between atoms: _304  and  _306
REMARK  118  A    between atoms: _306  and  _307
REMARK                            x       y       z     vdW  Elec       q    Type
REMARK                         _______ _______ _______ _____ _____    ______ ____
ROOT
ATOM      1  O   HOH     1      23.149  31.893  -0.352  0.00  0.00    +0.000 OA
ENDROOT
TORSDOF 0
