REMARK  Name = ../refined-set-2016/1erb/1erb_pocket.pdb
REMARK  226 active torsions:
REMARK  status: ('A' for Active; 'I' for Inactive)
REMARK    1  A    between atoms: _1  and  _3
REMARK    2  A    between atoms: _3  and  _4
REMARK    3  A    between atoms: _3  and  _6
REMARK    4  A    between atoms: _6  and  _7
REMARK    5  A    between atoms: _13  and  _15
REMARK    6  A    between atoms: _15  and  _16
REMARK    7  A    between atoms: _15  and  _18
REMARK    8  A    between atoms: _18  and  _19
REMARK    9  A    between atoms: _29  and  _31
REMARK   10  A    between atoms: _31  and  _32
REMARK   11  A    between atoms: _36  and  _37
REMARK   12  A    between atoms: _42  and  _44
REMARK   13  A    between atoms: _44  and  _45
REMARK   14  A    between atoms: _47  and  _49
REMARK   15  A    between atoms: _49  and  _50
REMARK   16  A    between atoms: _49  and  _52
REMARK   17  A    between atoms: _52  and  _53
REMARK   18  A    between atoms: _56  and  _58
REMARK   19  A    between atoms: _58  and  _59
REMARK   20  A    between atoms: _58  and  _61
REMARK   21  A    between atoms: _61  and  _62
REMARK   22  A    between atoms: _68  and  _70
REMARK   23  A    between atoms: _70  and  _71
REMARK   24  A    between atoms: _70  and  _73
REMARK   25  A    between atoms: _73  and  _74
REMARK   26  A    between atoms: _77  and  _79
REMARK   27  A    between atoms: _79  and  _80
REMARK   28  A    between atoms: _79  and  _82
REMARK   29  A    between atoms: _82  and  _83
REMARK   30  A    between atoms: _83  and  _84
REMARK   31  A    between atoms: _89  and  _91
REMARK   32  A    between atoms: _91  and  _92
REMARK   33  A    between atoms: _91  and  _94
REMARK   34  A    between atoms: _94  and  _95
REMARK   35  A    between atoms: _98  and  _100
REMARK   36  A    between atoms: _100  and  _101
REMARK   37  A    between atoms: _100  and  _103
REMARK   38  A    between atoms: _106  and  _108
REMARK   39  A    between atoms: _108  and  _109
REMARK   40  A    between atoms: _112  and  _114
REMARK   41  A    between atoms: _114  and  _115
REMARK   42  A    between atoms: _114  and  _117
REMARK   43  A    between atoms: _117  and  _118
REMARK   44  A    between atoms: _118  and  _119
REMARK   45  A    between atoms: _122  and  _124
REMARK   46  A    between atoms: _124  and  _125
REMARK   47  A    between atoms: _124  and  _127
REMARK   48  A    between atoms: _127  and  _128
REMARK   49  A    between atoms: _134  and  _136
REMARK   50  A    between atoms: _136  and  _137
REMARK   51  A    between atoms: _136  and  _139
REMARK   52  A    between atoms: _139  and  _140
REMARK   53  A    between atoms: _142  and  _144
REMARK   54  A    between atoms: _144  and  _145
REMARK   55  A    between atoms: _148  and  _150
REMARK   56  A    between atoms: _150  and  _151
REMARK   57  A    between atoms: _150  and  _153
REMARK   58  A    between atoms: _153  and  _154
REMARK   59  A    between atoms: _157  and  _159
REMARK   60  A    between atoms: _159  and  _160
REMARK   61  A    between atoms: _163  and  _165
REMARK   62  A    between atoms: _165  and  _166
REMARK   63  A    between atoms: _165  and  _168
REMARK   64  A    between atoms: _168  and  _169
REMARK   65  A    between atoms: _169  and  _170
REMARK   66  A    between atoms: _170  and  _171
REMARK   67  A    between atoms: _171  and  _172
REMARK   68  A    between atoms: _176  and  _178
REMARK   69  A    between atoms: _178  and  _179
REMARK   70  A    between atoms: _181  and  _183
REMARK   71  A    between atoms: _183  and  _184
REMARK   72  A    between atoms: _183  and  _186
REMARK   73  A    between atoms: _186  and  _187
REMARK   74  A    between atoms: _187  and  _188
REMARK   75  A    between atoms: _188  and  _189
REMARK   76  A    between atoms: _198  and  _200
REMARK   77  A    between atoms: _200  and  _201
REMARK   78  A    between atoms: _200  and  _203
REMARK   79  A    between atoms: _206  and  _208
REMARK   80  A    between atoms: _208  and  _209
REMARK   81  A    between atoms: _208  and  _211
REMARK   82  A    between atoms: _211  and  _212
REMARK   83  A    between atoms: _212  and  _213
REMARK   84  A    between atoms: _213  and  _214
REMARK   85  A    between atoms: _223  and  _225
REMARK   86  A    between atoms: _225  and  _226
REMARK   87  A    between atoms: _225  and  _228
REMARK   88  A    between atoms: _228  and  _229
REMARK   89  A    between atoms: _232  and  _234
REMARK   90  A    between atoms: _234  and  _235
REMARK   91  A    between atoms: _234  and  _237
REMARK   92  A    between atoms: _237  and  _238
REMARK   93  A    between atoms: _241  and  _243
REMARK   94  A    between atoms: _243  and  _244
REMARK   95  A    between atoms: _243  and  _246
REMARK   96  A    between atoms: _246  and  _247
REMARK   97  A    between atoms: _252  and  _254
REMARK   98  A    between atoms: _254  and  _255
REMARK   99  A    between atoms: _254  and  _257
REMARK  100  A    between atoms: _257  and  _258
REMARK  101  A    between atoms: _268  and  _270
REMARK  102  A    between atoms: _270  and  _271
REMARK  103  A    between atoms: _270  and  _273
REMARK  104  A    between atoms: _276  and  _278
REMARK  105  A    between atoms: _278  and  _279
REMARK  106  A    between atoms: _282  and  _284
REMARK  107  A    between atoms: _284  and  _285
REMARK  108  A    between atoms: _284  and  _287
REMARK  109  A    between atoms: _287  and  _288
REMARK  110  A    between atoms: _291  and  _293
REMARK  111  A    between atoms: _293  and  _294
REMARK  112  A    between atoms: _293  and  _296
REMARK  113  A    between atoms: _296  and  _297
REMARK  114  A    between atoms: _297  and  _298
REMARK  115  A    between atoms: _300  and  _302
REMARK  116  A    between atoms: _302  and  _303
REMARK  117  A    between atoms: _302  and  _305
REMARK  118  A    between atoms: _308  and  _310
REMARK  119  A    between atoms: _310  and  _311
REMARK  120  A    between atoms: _313  and  _315
REMARK  121  A    between atoms: _315  and  _316
REMARK  122  A    between atoms: _315  and  _318
REMARK  123  A    between atoms: _318  and  _319
REMARK  124  A    between atoms: _322  and  _324
REMARK  125  A    between atoms: _324  and  _325
REMARK  126  A    between atoms: _324  and  _327
REMARK  127  A    between atoms: _327  and  _328
REMARK  128  A    between atoms: _334  and  _336
REMARK  129  A    between atoms: _336  and  _337
REMARK  130  A    between atoms: _336  and  _339
REMARK  131  A    between atoms: _339  and  _340
REMARK  132  A    between atoms: _340  and  _341
REMARK  133  A    between atoms: _343  and  _345
REMARK  134  A    between atoms: _345  and  _346
REMARK  135  A    between atoms: _345  and  _348
REMARK  136  A    between atoms: _348  and  _349
REMARK  137  A    between atoms: _349  and  _350
REMARK  138  A    between atoms: _350  and  _351
REMARK  139  A    between atoms: _351  and  _352
REMARK  140  A    between atoms: _356  and  _358
REMARK  141  A    between atoms: _358  and  _359
REMARK  142  A    between atoms: _358  and  _361
REMARK  143  A    between atoms: _361  and  _362
REMARK  144  A    between atoms: _367  and  _368
REMARK  145  A    between atoms: _370  and  _372
REMARK  146  A    between atoms: _372  and  _373
REMARK  147  A    between atoms: _372  and  _375
REMARK  148  A    between atoms: _375  and  _376
REMARK  149  A    between atoms: _386  and  _388
REMARK  150  A    between atoms: _388  and  _389
REMARK  151  A    between atoms: _391  and  _393
REMARK  152  A    between atoms: _393  and  _394
REMARK  153  A    between atoms: _399  and  _400
REMARK  154  A    between atoms: _399  and  _402
REMARK  155  A    between atoms: _402  and  _403
REMARK  156  A    between atoms: _405  and  _407
REMARK  157  A    between atoms: _407  and  _408
REMARK  158  A    between atoms: _407  and  _410
REMARK  159  A    between atoms: _410  and  _411
REMARK  160  A    between atoms: _417  and  _419
REMARK  161  A    between atoms: _419  and  _420
REMARK  162  A    between atoms: _419  and  _422
REMARK  163  A    between atoms: _422  and  _423
REMARK  164  A    between atoms: _426  and  _428
REMARK  165  A    between atoms: _428  and  _429
REMARK  166  A    between atoms: _428  and  _431
REMARK  167  A    between atoms: _431  and  _432
REMARK  168  A    between atoms: _432  and  _433
REMARK  169  A    between atoms: _438  and  _440
REMARK  170  A    between atoms: _440  and  _441
REMARK  171  A    between atoms: _440  and  _443
REMARK  172  A    between atoms: _443  and  _444
REMARK  173  A    between atoms: _444  and  _445
REMARK  174  A    between atoms: _445  and  _446
REMARK  175  A    between atoms: _446  and  _447
REMARK  176  A    between atoms: _451  and  _453
REMARK  177  A    between atoms: _453  and  _454
REMARK  178  A    between atoms: _456  and  _458
REMARK  179  A    between atoms: _458  and  _459
REMARK  180  A    between atoms: _458  and  _461
REMARK  181  A    between atoms: _461  and  _462
REMARK  182  A    between atoms: _465  and  _467
REMARK  183  A    between atoms: _467  and  _468
REMARK  184  A    between atoms: _467  and  _470
REMARK  185  A    between atoms: _470  and  _471
REMARK  186  A    between atoms: _474  and  _476
REMARK  187  A    between atoms: _476  and  _477
REMARK  188  A    between atoms: _476  and  _479
REMARK  189  A    between atoms: _479  and  _480
REMARK  190  A    between atoms: _485  and  _487
REMARK  191  A    between atoms: _487  and  _488
REMARK  192  A    between atoms: _487  and  _490
REMARK  193  A    between atoms: _490  and  _491
REMARK  194  A    between atoms: _491  and  _492
REMARK  195  A    between atoms: _497  and  _499
REMARK  196  A    between atoms: _499  and  _500
REMARK  197  A    between atoms: _499  and  _502
REMARK  198  A    between atoms: _502  and  _503
REMARK  199  A    between atoms: _508  and  _509
REMARK  200  A    between atoms: _511  and  _513
REMARK  201  A    between atoms: _513  and  _514
REMARK  202  A    between atoms: _513  and  _516
REMARK  203  A    between atoms: _516  and  _517
REMARK  204  A    between atoms: _519  and  _521
REMARK  205  A    between atoms: _521  and  _522
REMARK  206  A    between atoms: _521  and  _524
REMARK  207  A    between atoms: _524  and  _525
REMARK  208  A    between atoms: _525  and  _526
REMARK  209  A    between atoms: _526  and  _527
REMARK  210  A    between atoms: _536  and  _538
REMARK  211  A    between atoms: _538  and  _539
REMARK  212  A    between atoms: _538  and  _541
REMARK  213  A    between atoms: _541  and  _542
REMARK  214  A    between atoms: _547  and  _548
REMARK  215  A    between atoms: _550  and  _552
REMARK  216  A    between atoms: _552  and  _553
REMARK  217  A    between atoms: _552  and  _555
REMARK  218  A    between atoms: _555  and  _556
REMARK  219  A    between atoms: _558  and  _560
REMARK  220  A    between atoms: _560  and  _561
REMARK  221  A    between atoms: _560  and  _563
REMARK  222  A    between atoms: _563  and  _564
REMARK  223  A    between atoms: _570  and  _572
REMARK  224  A    between atoms: _572  and  _573
REMARK  225  A    between atoms: _572  and  _575
REMARK  226  A    between atoms: _575  and  _576
REMARK                            x       y       z     vdW  Elec       q    Type
REMARK                         _______ _______ _______ _____ _____    ______ ____
ROOT
ATOM      1  CB  PHE A   1      24.025  24.012  34.271  0.00  0.00    +0.051 C 
ENDROOT
BRANCH   1   2
ATOM      2  CG  PHE A   1      24.279  24.432  35.716  0.00  0.00    -0.020 A 
ATOM      3  CD2 PHE A   1      25.146  23.717  36.537  0.00  0.00    -0.004 A 
ATOM      4  CE2 PHE A   1      25.378  24.086  37.869  0.00  0.00    -0.000 A 
ATOM      5  CZ  PHE A   1      24.720  25.194  38.399  0.00  0.00    -0.000 A 
ATOM      6  CE1 PHE A   1      23.846  25.925  37.603  0.00  0.00    -0.000 A 
ATOM      7  CD1 PHE A   1      23.637  25.535  36.271  0.00  0.00    -0.004 A 
ENDBRANCH   1   2
BRANCH   1   8
ATOM      8  CA  PHE A   1      24.821  24.748  33.167  0.00  0.00    +0.137 C 
BRANCH   8   9
ATOM      9  N   PHE A   1      24.236  24.514  31.848  0.00  0.00    -0.239 NA
ATOM     10  H   PHE A   1      23.745  23.615  31.667  0.00  0.00    +0.142 HD
ENDBRANCH   8   9
BRANCH   8  11
ATOM     11  C   PHE A   1      26.305  24.440  33.257  0.00  0.00    +0.224 C 
ATOM     12  O   PHE A   1      26.967  24.882  34.192  0.00  0.00    -0.287 OA
ENDBRANCH   8  11
ENDBRANCH   1   8
TORSDOF 4
REMARK  Name = ../refined-set-2016/1erb/1erb_pocket.pdb
REMARK  226 active torsions:
REMARK  status: ('A' for Active; 'I' for Inactive)
REMARK    1  A    between atoms: _1  and  _3
REMARK    2  A    between atoms: _3  and  _4
REMARK    3  A    between atoms: _3  and  _6
REMARK    4  A    between atoms: _6  and  _7
REMARK    5  A    between atoms: _13  and  _15
REMARK    6  A    between atoms: _15  and  _16
REMARK    7  A    between atoms: _15  and  _18
REMARK    8  A    between atoms: _18  and  _19
REMARK    9  A    between atoms: _29  and  _31
REMARK   10  A    between atoms: _31  and  _32
REMARK   11  A    between atoms: _36  and  _37
REMARK   12  A    between atoms: _42  and  _44
REMARK   13  A    between atoms: _44  and  _45
REMARK   14  A    between atoms: _47  and  _49
REMARK   15  A    between atoms: _49  and  _50
REMARK   16  A    between atoms: _49  and  _52
REMARK   17  A    between atoms: _52  and  _53
REMARK   18  A    between atoms: _56  and  _58
REMARK   19  A    between atoms: _58  and  _59
REMARK   20  A    between atoms: _58  and  _61
REMARK   21  A    between atoms: _61  and  _62
REMARK   22  A    between atoms: _68  and  _70
REMARK   23  A    between atoms: _70  and  _71
REMARK   24  A    between atoms: _70  and  _73
REMARK   25  A    between atoms: _73  and  _74
REMARK   26  A    between atoms: _77  and  _79
REMARK   27  A    between atoms: _79  and  _80
REMARK   28  A    between atoms: _79  and  _82
REMARK   29  A    between atoms: _82  and  _83
REMARK   30  A    between atoms: _83  and  _84
REMARK   31  A    between atoms: _89  and  _91
REMARK   32  A    between atoms: _91  and  _92
REMARK   33  A    between atoms: _91  and  _94
REMARK   34  A    between atoms: _94  and  _95
REMARK   35  A    between atoms: _98  and  _100
REMARK   36  A    between atoms: _100  and  _101
REMARK   37  A    between atoms: _100  and  _103
REMARK   38  A    between atoms: _106  and  _108
REMARK   39  A    between atoms: _108  and  _109
REMARK   40  A    between atoms: _112  and  _114
REMARK   41  A    between atoms: _114  and  _115
REMARK   42  A    between atoms: _114  and  _117
REMARK   43  A    between atoms: _117  and  _118
REMARK   44  A    between atoms: _118  and  _119
REMARK   45  A    between atoms: _122  and  _124
REMARK   46  A    between atoms: _124  and  _125
REMARK   47  A    between atoms: _124  and  _127
REMARK   48  A    between atoms: _127  and  _128
REMARK   49  A    between atoms: _134  and  _136
REMARK   50  A    between atoms: _136  and  _137
REMARK   51  A    between atoms: _136  and  _139
REMARK   52  A    between atoms: _139  and  _140
REMARK   53  A    between atoms: _142  and  _144
REMARK   54  A    between atoms: _144  and  _145
REMARK   55  A    between atoms: _148  and  _150
REMARK   56  A    between atoms: _150  and  _151
REMARK   57  A    between atoms: _150  and  _153
REMARK   58  A    between atoms: _153  and  _154
REMARK   59  A    between atoms: _157  and  _159
REMARK   60  A    between atoms: _159  and  _160
REMARK   61  A    between atoms: _163  and  _165
REMARK   62  A    between atoms: _165  and  _166
REMARK   63  A    between atoms: _165  and  _168
REMARK   64  A    between atoms: _168  and  _169
REMARK   65  A    between atoms: _169  and  _170
REMARK   66  A    between atoms: _170  and  _171
REMARK   67  A    between atoms: _171  and  _172
REMARK   68  A    between atoms: _176  and  _178
REMARK   69  A    between atoms: _178  and  _179
REMARK   70  A    between atoms: _181  and  _183
REMARK   71  A    between atoms: _183  and  _184
REMARK   72  A    between atoms: _183  and  _186
REMARK   73  A    between atoms: _186  and  _187
REMARK   74  A    between atoms: _187  and  _188
REMARK   75  A    between atoms: _188  and  _189
REMARK   76  A    between atoms: _198  and  _200
REMARK   77  A    between atoms: _200  and  _201
REMARK   78  A    between atoms: _200  and  _203
REMARK   79  A    between atoms: _206  and  _208
REMARK   80  A    between atoms: _208  and  _209
REMARK   81  A    between atoms: _208  and  _211
REMARK   82  A    between atoms: _211  and  _212
REMARK   83  A    between atoms: _212  and  _213
REMARK   84  A    between atoms: _213  and  _214
REMARK   85  A    between atoms: _223  and  _225
REMARK   86  A    between atoms: _225  and  _226
REMARK   87  A    between atoms: _225  and  _228
REMARK   88  A    between atoms: _228  and  _229
REMARK   89  A    between atoms: _232  and  _234
REMARK   90  A    between atoms: _234  and  _235
REMARK   91  A    between atoms: _234  and  _237
REMARK   92  A    between atoms: _237  and  _238
REMARK   93  A    between atoms: _241  and  _243
REMARK   94  A    between atoms: _243  and  _244
REMARK   95  A    between atoms: _243  and  _246
REMARK   96  A    between atoms: _246  and  _247
REMARK   97  A    between atoms: _252  and  _254
REMARK   98  A    between atoms: _254  and  _255
REMARK   99  A    between atoms: _254  and  _257
REMARK  100  A    between atoms: _257  and  _258
REMARK  101  A    between atoms: _268  and  _270
REMARK  102  A    between atoms: _270  and  _271
REMARK  103  A    between atoms: _270  and  _273
REMARK  104  A    between atoms: _276  and  _278
REMARK  105  A    between atoms: _278  and  _279
REMARK  106  A    between atoms: _282  and  _284
REMARK  107  A    between atoms: _284  and  _285
REMARK  108  A    between atoms: _284  and  _287
REMARK  109  A    between atoms: _287  and  _288
REMARK  110  A    between atoms: _291  and  _293
REMARK  111  A    between atoms: _293  and  _294
REMARK  112  A    between atoms: _293  and  _296
REMARK  113  A    between atoms: _296  and  _297
REMARK  114  A    between atoms: _297  and  _298
REMARK  115  A    between atoms: _300  and  _302
REMARK  116  A    between atoms: _302  and  _303
REMARK  117  A    between atoms: _302  and  _305
REMARK  118  A    between atoms: _308  and  _310
REMARK  119  A    between atoms: _310  and  _311
REMARK  120  A    between atoms: _313  and  _315
REMARK  121  A    between atoms: _315  and  _316
REMARK  122  A    between atoms: _315  and  _318
REMARK  123  A    between atoms: _318  and  _319
REMARK  124  A    between atoms: _322  and  _324
REMARK  125  A    between atoms: _324  and  _325
REMARK  126  A    between atoms: _324  and  _327
REMARK  127  A    between atoms: _327  and  _328
REMARK  128  A    between atoms: _334  and  _336
REMARK  129  A    between atoms: _336  and  _337
REMARK  130  A    between atoms: _336  and  _339
REMARK  131  A    between atoms: _339  and  _340
REMARK  132  A    between atoms: _340  and  _341
REMARK  133  A    between atoms: _343  and  _345
REMARK  134  A    between atoms: _345  and  _346
REMARK  135  A    between atoms: _345  and  _348
REMARK  136  A    between atoms: _348  and  _349
REMARK  137  A    between atoms: _349  and  _350
REMARK  138  A    between atoms: _350  and  _351
REMARK  139  A    between atoms: _351  and  _352
REMARK  140  A    between atoms: _356  and  _358
REMARK  141  A    between atoms: _358  and  _359
REMARK  142  A    between atoms: _358  and  _361
REMARK  143  A    between atoms: _361  and  _362
REMARK  144  A    between atoms: _367  and  _368
REMARK  145  A    between atoms: _370  and  _372
REMARK  146  A    between atoms: _372  and  _373
REMARK  147  A    between atoms: _372  and  _375
REMARK  148  A    between atoms: _375  and  _376
REMARK  149  A    between atoms: _386  and  _388
REMARK  150  A    between atoms: _388  and  _389
REMARK  151  A    between atoms: _391  and  _393
REMARK  152  A    between atoms: _393  and  _394
REMARK  153  A    between atoms: _399  and  _400
REMARK  154  A    between atoms: _399  and  _402
REMARK  155  A    between atoms: _402  and  _403
REMARK  156  A    between atoms: _405  and  _407
REMARK  157  A    between atoms: _407  and  _408
REMARK  158  A    between atoms: _407  and  _410
REMARK  159  A    between atoms: _410  and  _411
REMARK  160  A    between atoms: _417  and  _419
REMARK  161  A    between atoms: _419  and  _420
REMARK  162  A    between atoms: _419  and  _422
REMARK  163  A    between atoms: _422  and  _423
REMARK  164  A    between atoms: _426  and  _428
REMARK  165  A    between atoms: _428  and  _429
REMARK  166  A    between atoms: _428  and  _431
REMARK  167  A    between atoms: _431  and  _432
REMARK  168  A    between atoms: _432  and  _433
REMARK  169  A    between atoms: _438  and  _440
REMARK  170  A    between atoms: _440  and  _441
REMARK  171  A    between atoms: _440  and  _443
REMARK  172  A    between atoms: _443  and  _444
REMARK  173  A    between atoms: _444  and  _445
REMARK  174  A    between atoms: _445  and  _446
REMARK  175  A    between atoms: _446  and  _447
REMARK  176  A    between atoms: _451  and  _453
REMARK  177  A    between atoms: _453  and  _454
REMARK  178  A    between atoms: _456  and  _458
REMARK  179  A    between atoms: _458  and  _459
REMARK  180  A    between atoms: _458  and  _461
REMARK  181  A    between atoms: _461  and  _462
REMARK  182  A    between atoms: _465  and  _467
REMARK  183  A    between atoms: _467  and  _468
REMARK  184  A    between atoms: _467  and  _470
REMARK  185  A    between atoms: _470  and  _471
REMARK  186  A    between atoms: _474  and  _476
REMARK  187  A    between atoms: _476  and  _477
REMARK  188  A    between atoms: _476  and  _479
REMARK  189  A    between atoms: _479  and  _480
REMARK  190  A    between atoms: _485  and  _487
REMARK  191  A    between atoms: _487  and  _488
REMARK  192  A    between atoms: _487  and  _490
REMARK  193  A    between atoms: _490  and  _491
REMARK  194  A    between atoms: _491  and  _492
REMARK  195  A    between atoms: _497  and  _499
REMARK  196  A    between atoms: _499  and  _500
REMARK  197  A    between atoms: _499  and  _502
REMARK  198  A    between atoms: _502  and  _503
REMARK  199  A    between atoms: _508  and  _509
REMARK  200  A    between atoms: _511  and  _513
REMARK  201  A    between atoms: _513  and  _514
REMARK  202  A    between atoms: _513  and  _516
REMARK  203  A    between atoms: _516  and  _517
REMARK  204  A    between atoms: _519  and  _521
REMARK  205  A    between atoms: _521  and  _522
REMARK  206  A    between atoms: _521  and  _524
REMARK  207  A    between atoms: _524  and  _525
REMARK  208  A    between atoms: _525  and  _526
REMARK  209  A    between atoms: _526  and  _527
REMARK  210  A    between atoms: _536  and  _538
REMARK  211  A    between atoms: _538  and  _539
REMARK  212  A    between atoms: _538  and  _541
REMARK  213  A    between atoms: _541  and  _542
REMARK  214  A    between atoms: _547  and  _548
REMARK  215  A    between atoms: _550  and  _552
REMARK  216  A    between atoms: _552  and  _553
REMARK  217  A    between atoms: _552  and  _555
REMARK  218  A    between atoms: _555  and  _556
REMARK  219  A    between atoms: _558  and  _560
REMARK  220  A    between atoms: _560  and  _561
REMARK  221  A    between atoms: _560  and  _563
REMARK  222  A    between atoms: _563  and  _564
REMARK  223  A    between atoms: _570  and  _572
REMARK  224  A    between atoms: _572  and  _573
REMARK  225  A    between atoms: _572  and  _575
REMARK  226  A    between atoms: _575  and  _576
REMARK                            x       y       z     vdW  Elec       q    Type
REMARK                         _______ _______ _______ _____ _____    ______ ____
ROOT
ATOM      1  CG  TRP A   1      28.951  27.570  37.923  0.00  0.00    -0.002 A 
ATOM      2  CD2 TRP A   1      27.996  28.597  37.560  0.00  0.00    +0.013 A 
ATOM      3  CE3 TRP A   1      27.779  29.918  37.946  0.00  0.00    +0.001 A 
ATOM      4  CZ3 TRP A   1      26.740  30.639  37.388  0.00  0.00    +0.000 A 
ATOM      5  CH2 TRP A   1      25.896  30.066  36.442  0.00  0.00    +0.001 A 
ATOM      6  CZ2 TRP A   1      26.077  28.763  36.041  0.00  0.00    +0.017 A 
ATOM      7  CE2 TRP A   1      27.128  28.044  36.597  0.00  0.00    +0.056 A 
ATOM      8  NE1 TRP A   1      27.529  26.755  36.382  0.00  0.00    -0.352 N 
ATOM      9  HE1 TRP A   1      27.085  26.086  35.721  0.00  0.00    +0.166 HD
ATOM     10  CD1 TRP A   1      28.608  26.488  37.177  0.00  0.00    +0.068 A 
ENDROOT
BRANCH   1  11
ATOM     11  CB  TRP A   1      30.088  27.606  38.920  0.00  0.00    +0.053 C 
BRANCH  11  12
ATOM     12  CA  TRP A   1      31.289  28.467  38.488  0.00  0.00    +0.137 C 
BRANCH  12  13
ATOM     13  N   TRP A   1      32.121  27.722  37.575  0.00  0.00    -0.239 NA
ATOM     14  H   TRP A   1      32.657  26.909  37.939  0.00  0.00    +0.142 HD
ENDBRANCH  12  13
BRANCH  12  15
ATOM     15  C   TRP A   1      32.148  28.867  39.670  0.00  0.00    +0.224 C 
ATOM     16  O   TRP A   1      32.852  28.028  40.227  0.00  0.00    -0.287 OA
ENDBRANCH  12  15
ENDBRANCH  11  12
ENDBRANCH   1  11
TORSDOF 4
REMARK  Name = ../refined-set-2016/1erb/1erb_pocket.pdb
REMARK  226 active torsions:
REMARK  status: ('A' for Active; 'I' for Inactive)
REMARK    1  A    between atoms: _1  and  _3
REMARK    2  A    between atoms: _3  and  _4
REMARK    3  A    between atoms: _3  and  _6
REMARK    4  A    between atoms: _6  and  _7
REMARK    5  A    between atoms: _13  and  _15
REMARK    6  A    between atoms: _15  and  _16
REMARK    7  A    between atoms: _15  and  _18
REMARK    8  A    between atoms: _18  and  _19
REMARK    9  A    between atoms: _29  and  _31
REMARK   10  A    between atoms: _31  and  _32
REMARK   11  A    between atoms: _36  and  _37
REMARK   12  A    between atoms: _42  and  _44
REMARK   13  A    between atoms: _44  and  _45
REMARK   14  A    between atoms: _47  and  _49
REMARK   15  A    between atoms: _49  and  _50
REMARK   16  A    between atoms: _49  and  _52
REMARK   17  A    between atoms: _52  and  _53
REMARK   18  A    between atoms: _56  and  _58
REMARK   19  A    between atoms: _58  and  _59
REMARK   20  A    between atoms: _58  and  _61
REMARK   21  A    between atoms: _61  and  _62
REMARK   22  A    between atoms: _68  and  _70
REMARK   23  A    between atoms: _70  and  _71
REMARK   24  A    between atoms: _70  and  _73
REMARK   25  A    between atoms: _73  and  _74
REMARK   26  A    between atoms: _77  and  _79
REMARK   27  A    between atoms: _79  and  _80
REMARK   28  A    between atoms: _79  and  _82
REMARK   29  A    between atoms: _82  and  _83
REMARK   30  A    between atoms: _83  and  _84
REMARK   31  A    between atoms: _89  and  _91
REMARK   32  A    between atoms: _91  and  _92
REMARK   33  A    between atoms: _91  and  _94
REMARK   34  A    between atoms: _94  and  _95
REMARK   35  A    between atoms: _98  and  _100
REMARK   36  A    between atoms: _100  and  _101
REMARK   37  A    between atoms: _100  and  _103
REMARK   38  A    between atoms: _106  and  _108
REMARK   39  A    between atoms: _108  and  _109
REMARK   40  A    between atoms: _112  and  _114
REMARK   41  A    between atoms: _114  and  _115
REMARK   42  A    between atoms: _114  and  _117
REMARK   43  A    between atoms: _117  and  _118
REMARK   44  A    between atoms: _118  and  _119
REMARK   45  A    between atoms: _122  and  _124
REMARK   46  A    between atoms: _124  and  _125
REMARK   47  A    between atoms: _124  and  _127
REMARK   48  A    between atoms: _127  and  _128
REMARK   49  A    between atoms: _134  and  _136
REMARK   50  A    between atoms: _136  and  _137
REMARK   51  A    between atoms: _136  and  _139
REMARK   52  A    between atoms: _139  and  _140
REMARK   53  A    between atoms: _142  and  _144
REMARK   54  A    between atoms: _144  and  _145
REMARK   55  A    between atoms: _148  and  _150
REMARK   56  A    between atoms: _150  and  _151
REMARK   57  A    between atoms: _150  and  _153
REMARK   58  A    between atoms: _153  and  _154
REMARK   59  A    between atoms: _157  and  _159
REMARK   60  A    between atoms: _159  and  _160
REMARK   61  A    between atoms: _163  and  _165
REMARK   62  A    between atoms: _165  and  _166
REMARK   63  A    between atoms: _165  and  _168
REMARK   64  A    between atoms: _168  and  _169
REMARK   65  A    between atoms: _169  and  _170
REMARK   66  A    between atoms: _170  and  _171
REMARK   67  A    between atoms: _171  and  _172
REMARK   68  A    between atoms: _176  and  _178
REMARK   69  A    between atoms: _178  and  _179
REMARK   70  A    between atoms: _181  and  _183
REMARK   71  A    between atoms: _183  and  _184
REMARK   72  A    between atoms: _183  and  _186
REMARK   73  A    between atoms: _186  and  _187
REMARK   74  A    between atoms: _187  and  _188
REMARK   75  A    between atoms: _188  and  _189
REMARK   76  A    between atoms: _198  and  _200
REMARK   77  A    between atoms: _200  and  _201
REMARK   78  A    between atoms: _200  and  _203
REMARK   79  A    between atoms: _206  and  _208
REMARK   80  A    between atoms: _208  and  _209
REMARK   81  A    between atoms: _208  and  _211
REMARK   82  A    between atoms: _211  and  _212
REMARK   83  A    between atoms: _212  and  _213
REMARK   84  A    between atoms: _213  and  _214
REMARK   85  A    between atoms: _223  and  _225
REMARK   86  A    between atoms: _225  and  _226
REMARK   87  A    between atoms: _225  and  _228
REMARK   88  A    between atoms: _228  and  _229
REMARK   89  A    between atoms: _232  and  _234
REMARK   90  A    between atoms: _234  and  _235
REMARK   91  A    between atoms: _234  and  _237
REMARK   92  A    between atoms: _237  and  _238
REMARK   93  A    between atoms: _241  and  _243
REMARK   94  A    between atoms: _243  and  _244
REMARK   95  A    between atoms: _243  and  _246
REMARK   96  A    between atoms: _246  and  _247
REMARK   97  A    between atoms: _252  and  _254
REMARK   98  A    between atoms: _254  and  _255
REMARK   99  A    between atoms: _254  and  _257
REMARK  100  A    between atoms: _257  and  _258
REMARK  101  A    between atoms: _268  and  _270
REMARK  102  A    between atoms: _270  and  _271
REMARK  103  A    between atoms: _270  and  _273
REMARK  104  A    between atoms: _276  and  _278
REMARK  105  A    between atoms: _278  and  _279
REMARK  106  A    between atoms: _282  and  _284
REMARK  107  A    between atoms: _284  and  _285
REMARK  108  A    between atoms: _284  and  _287
REMARK  109  A    between atoms: _287  and  _288
REMARK  110  A    between atoms: _291  and  _293
REMARK  111  A    between atoms: _293  and  _294
REMARK  112  A    between atoms: _293  and  _296
REMARK  113  A    between atoms: _296  and  _297
REMARK  114  A    between atoms: _297  and  _298
REMARK  115  A    between atoms: _300  and  _302
REMARK  116  A    between atoms: _302  and  _303
REMARK  117  A    between atoms: _302  and  _305
REMARK  118  A    between atoms: _308  and  _310
REMARK  119  A    between atoms: _310  and  _311
REMARK  120  A    between atoms: _313  and  _315
REMARK  121  A    between atoms: _315  and  _316
REMARK  122  A    between atoms: _315  and  _318
REMARK  123  A    between atoms: _318  and  _319
REMARK  124  A    between atoms: _322  and  _324
REMARK  125  A    between atoms: _324  and  _325
REMARK  126  A    between atoms: _324  and  _327
REMARK  127  A    between atoms: _327  and  _328
REMARK  128  A    between atoms: _334  and  _336
REMARK  129  A    between atoms: _336  and  _337
REMARK  130  A    between atoms: _336  and  _339
REMARK  131  A    between atoms: _339  and  _340
REMARK  132  A    between atoms: _340  and  _341
REMARK  133  A    between atoms: _343  and  _345
REMARK  134  A    between atoms: _345  and  _346
REMARK  135  A    between atoms: _345  and  _348
REMARK  136  A    between atoms: _348  and  _349
REMARK  137  A    between atoms: _349  and  _350
REMARK  138  A    between atoms: _350  and  _351
REMARK  139  A    between atoms: _351  and  _352
REMARK  140  A    between atoms: _356  and  _358
REMARK  141  A    between atoms: _358  and  _359
REMARK  142  A    between atoms: _358  and  _361
REMARK  143  A    between atoms: _361  and  _362
REMARK  144  A    between atoms: _367  and  _368
REMARK  145  A    between atoms: _370  and  _372
REMARK  146  A    between atoms: _372  and  _373
REMARK  147  A    between atoms: _372  and  _375
REMARK  148  A    between atoms: _375  and  _376
REMARK  149  A    between atoms: _386  and  _388
REMARK  150  A    between atoms: _388  and  _389
REMARK  151  A    between atoms: _391  and  _393
REMARK  152  A    between atoms: _393  and  _394
REMARK  153  A    between atoms: _399  and  _400
REMARK  154  A    between atoms: _399  and  _402
REMARK  155  A    between atoms: _402  and  _403
REMARK  156  A    between atoms: _405  and  _407
REMARK  157  A    between atoms: _407  and  _408
REMARK  158  A    between atoms: _407  and  _410
REMARK  159  A    between atoms: _410  and  _411
REMARK  160  A    between atoms: _417  and  _419
REMARK  161  A    between atoms: _419  and  _420
REMARK  162  A    between atoms: _419  and  _422
REMARK  163  A    between atoms: _422  and  _423
REMARK  164  A    between atoms: _426  and  _428
REMARK  165  A    between atoms: _428  and  _429
REMARK  166  A    between atoms: _428  and  _431
REMARK  167  A    between atoms: _431  and  _432
REMARK  168  A    between atoms: _432  and  _433
REMARK  169  A    between atoms: _438  and  _440
REMARK  170  A    between atoms: _440  and  _441
REMARK  171  A    between atoms: _440  and  _443
REMARK  172  A    between atoms: _443  and  _444
REMARK  173  A    between atoms: _444  and  _445
REMARK  174  A    between atoms: _445  and  _446
REMARK  175  A    between atoms: _446  and  _447
REMARK  176  A    between atoms: _451  and  _453
REMARK  177  A    between atoms: _453  and  _454
REMARK  178  A    between atoms: _456  and  _458
REMARK  179  A    between atoms: _458  and  _459
REMARK  180  A    between atoms: _458  and  _461
REMARK  181  A    between atoms: _461  and  _462
REMARK  182  A    between atoms: _465  and  _467
REMARK  183  A    between atoms: _467  and  _468
REMARK  184  A    between atoms: _467  and  _470
REMARK  185  A    between atoms: _470  and  _471
REMARK  186  A    between atoms: _474  and  _476
REMARK  187  A    between atoms: _476  and  _477
REMARK  188  A    between atoms: _476  and  _479
REMARK  189  A    between atoms: _479  and  _480
REMARK  190  A    between atoms: _485  and  _487
REMARK  191  A    between atoms: _487  and  _488
REMARK  192  A    between atoms: _487  and  _490
REMARK  193  A    between atoms: _490  and  _491
REMARK  194  A    between atoms: _491  and  _492
REMARK  195  A    between atoms: _497  and  _499
REMARK  196  A    between atoms: _499  and  _500
REMARK  197  A    between atoms: _499  and  _502
REMARK  198  A    between atoms: _502  and  _503
REMARK  199  A    between atoms: _508  and  _509
REMARK  200  A    between atoms: _511  and  _513
REMARK  201  A    between atoms: _513  and  _514
REMARK  202  A    between atoms: _513  and  _516
REMARK  203  A    between atoms: _516  and  _517
REMARK  204  A    between atoms: _519  and  _521
REMARK  205  A    between atoms: _521  and  _522
REMARK  206  A    between atoms: _521  and  _524
REMARK  207  A    between atoms: _524  and  _525
REMARK  208  A    between atoms: _525  and  _526
REMARK  209  A    between atoms: _526  and  _527
REMARK  210  A    between atoms: _536  and  _538
REMARK  211  A    between atoms: _538  and  _539
REMARK  212  A    between atoms: _538  and  _541
REMARK  213  A    between atoms: _541  and  _542
REMARK  214  A    between atoms: _547  and  _548
REMARK  215  A    between atoms: _550  and  _552
REMARK  216  A    between atoms: _552  and  _553
REMARK  217  A    between atoms: _552  and  _555
REMARK  218  A    between atoms: _555  and  _556
REMARK  219  A    between atoms: _558  and  _560
REMARK  220  A    between atoms: _560  and  _561
REMARK  221  A    between atoms: _560  and  _563
REMARK  222  A    between atoms: _563  and  _564
REMARK  223  A    between atoms: _570  and  _572
REMARK  224  A    between atoms: _572  and  _573
REMARK  225  A    between atoms: _572  and  _575
REMARK  226  A    between atoms: _575  and  _576
REMARK                            x       y       z     vdW  Elec       q    Type
REMARK                         _______ _______ _______ _____ _____    ______ ____
ROOT
ATOM      1  CA  ALA A   1      31.521  30.540  44.678  0.00  0.00    +0.133 C 
ATOM      2  CB  ALA A   1      31.840  29.446  45.690  0.00  0.00    +0.027 C 
ENDROOT
BRANCH   1   3
ATOM      3  N   ALA A   1      32.339  30.376  43.499  0.00  0.00    -0.239 NA
ATOM      4  H   ALA A   1      33.238  29.856  43.557  0.00  0.00    +0.142 HD
ENDBRANCH   1   3
BRANCH   1   5
ATOM      5  C   ALA A   1      31.725  31.941  45.229  0.00  0.00    +0.224 C 
ATOM      6  O   ALA A   1      32.859  32.278  45.561  0.00  0.00    -0.287 OA
ENDBRANCH   1   5
TORSDOF 2
REMARK  Name = ../refined-set-2016/1erb/1erb_pocket.pdb
REMARK  226 active torsions:
REMARK  status: ('A' for Active; 'I' for Inactive)
REMARK    1  A    between atoms: _1  and  _3
REMARK    2  A    between atoms: _3  and  _4
REMARK    3  A    between atoms: _3  and  _6
REMARK    4  A    between atoms: _6  and  _7
REMARK    5  A    between atoms: _13  and  _15
REMARK    6  A    between atoms: _15  and  _16
REMARK    7  A    between atoms: _15  and  _18
REMARK    8  A    between atoms: _18  and  _19
REMARK    9  A    between atoms: _29  and  _31
REMARK   10  A    between atoms: _31  and  _32
REMARK   11  A    between atoms: _36  and  _37
REMARK   12  A    between atoms: _42  and  _44
REMARK   13  A    between atoms: _44  and  _45
REMARK   14  A    between atoms: _47  and  _49
REMARK   15  A    between atoms: _49  and  _50
REMARK   16  A    between atoms: _49  and  _52
REMARK   17  A    between atoms: _52  and  _53
REMARK   18  A    between atoms: _56  and  _58
REMARK   19  A    between atoms: _58  and  _59
REMARK   20  A    between atoms: _58  and  _61
REMARK   21  A    between atoms: _61  and  _62
REMARK   22  A    between atoms: _68  and  _70
REMARK   23  A    between atoms: _70  and  _71
REMARK   24  A    between atoms: _70  and  _73
REMARK   25  A    between atoms: _73  and  _74
REMARK   26  A    between atoms: _77  and  _79
REMARK   27  A    between atoms: _79  and  _80
REMARK   28  A    between atoms: _79  and  _82
REMARK   29  A    between atoms: _82  and  _83
REMARK   30  A    between atoms: _83  and  _84
REMARK   31  A    between atoms: _89  and  _91
REMARK   32  A    between atoms: _91  and  _92
REMARK   33  A    between atoms: _91  and  _94
REMARK   34  A    between atoms: _94  and  _95
REMARK   35  A    between atoms: _98  and  _100
REMARK   36  A    between atoms: _100  and  _101
REMARK   37  A    between atoms: _100  and  _103
REMARK   38  A    between atoms: _106  and  _108
REMARK   39  A    between atoms: _108  and  _109
REMARK   40  A    between atoms: _112  and  _114
REMARK   41  A    between atoms: _114  and  _115
REMARK   42  A    between atoms: _114  and  _117
REMARK   43  A    between atoms: _117  and  _118
REMARK   44  A    between atoms: _118  and  _119
REMARK   45  A    between atoms: _122  and  _124
REMARK   46  A    between atoms: _124  and  _125
REMARK   47  A    between atoms: _124  and  _127
REMARK   48  A    between atoms: _127  and  _128
REMARK   49  A    between atoms: _134  and  _136
REMARK   50  A    between atoms: _136  and  _137
REMARK   51  A    between atoms: _136  and  _139
REMARK   52  A    between atoms: _139  and  _140
REMARK   53  A    between atoms: _142  and  _144
REMARK   54  A    between atoms: _144  and  _145
REMARK   55  A    between atoms: _148  and  _150
REMARK   56  A    between atoms: _150  and  _151
REMARK   57  A    between atoms: _150  and  _153
REMARK   58  A    between atoms: _153  and  _154
REMARK   59  A    between atoms: _157  and  _159
REMARK   60  A    between atoms: _159  and  _160
REMARK   61  A    between atoms: _163  and  _165
REMARK   62  A    between atoms: _165  and  _166
REMARK   63  A    between atoms: _165  and  _168
REMARK   64  A    between atoms: _168  and  _169
REMARK   65  A    between atoms: _169  and  _170
REMARK   66  A    between atoms: _170  and  _171
REMARK   67  A    between atoms: _171  and  _172
REMARK   68  A    between atoms: _176  and  _178
REMARK   69  A    between atoms: _178  and  _179
REMARK   70  A    between atoms: _181  and  _183
REMARK   71  A    between atoms: _183  and  _184
REMARK   72  A    between atoms: _183  and  _186
REMARK   73  A    between atoms: _186  and  _187
REMARK   74  A    between atoms: _187  and  _188
REMARK   75  A    between atoms: _188  and  _189
REMARK   76  A    between atoms: _198  and  _200
REMARK   77  A    between atoms: _200  and  _201
REMARK   78  A    between atoms: _200  and  _203
REMARK   79  A    between atoms: _206  and  _208
REMARK   80  A    between atoms: _208  and  _209
REMARK   81  A    between atoms: _208  and  _211
REMARK   82  A    between atoms: _211  and  _212
REMARK   83  A    between atoms: _212  and  _213
REMARK   84  A    between atoms: _213  and  _214
REMARK   85  A    between atoms: _223  and  _225
REMARK   86  A    between atoms: _225  and  _226
REMARK   87  A    between atoms: _225  and  _228
REMARK   88  A    between atoms: _228  and  _229
REMARK   89  A    between atoms: _232  and  _234
REMARK   90  A    between atoms: _234  and  _235
REMARK   91  A    between atoms: _234  and  _237
REMARK   92  A    between atoms: _237  and  _238
REMARK   93  A    between atoms: _241  and  _243
REMARK   94  A    between atoms: _243  and  _244
REMARK   95  A    between atoms: _243  and  _246
REMARK   96  A    between atoms: _246  and  _247
REMARK   97  A    between atoms: _252  and  _254
REMARK   98  A    between atoms: _254  and  _255
REMARK   99  A    between atoms: _254  and  _257
REMARK  100  A    between atoms: _257  and  _258
REMARK  101  A    between atoms: _268  and  _270
REMARK  102  A    between atoms: _270  and  _271
REMARK  103  A    between atoms: _270  and  _273
REMARK  104  A    between atoms: _276  and  _278
REMARK  105  A    between atoms: _278  and  _279
REMARK  106  A    between atoms: _282  and  _284
REMARK  107  A    between atoms: _284  and  _285
REMARK  108  A    between atoms: _284  and  _287
REMARK  109  A    between atoms: _287  and  _288
REMARK  110  A    between atoms: _291  and  _293
REMARK  111  A    between atoms: _293  and  _294
REMARK  112  A    between atoms: _293  and  _296
REMARK  113  A    between atoms: _296  and  _297
REMARK  114  A    between atoms: _297  and  _298
REMARK  115  A    between atoms: _300  and  _302
REMARK  116  A    between atoms: _302  and  _303
REMARK  117  A    between atoms: _302  and  _305
REMARK  118  A    between atoms: _308  and  _310
REMARK  119  A    between atoms: _310  and  _311
REMARK  120  A    between atoms: _313  and  _315
REMARK  121  A    between atoms: _315  and  _316
REMARK  122  A    between atoms: _315  and  _318
REMARK  123  A    between atoms: _318  and  _319
REMARK  124  A    between atoms: _322  and  _324
REMARK  125  A    between atoms: _324  and  _325
REMARK  126  A    between atoms: _324  and  _327
REMARK  127  A    between atoms: _327  and  _328
REMARK  128  A    between atoms: _334  and  _336
REMARK  129  A    between atoms: _336  and  _337
REMARK  130  A    between atoms: _336  and  _339
REMARK  131  A    between atoms: _339  and  _340
REMARK  132  A    between atoms: _340  and  _341
REMARK  133  A    between atoms: _343  and  _345
REMARK  134  A    between atoms: _345  and  _346
REMARK  135  A    between atoms: _345  and  _348
REMARK  136  A    between atoms: _348  and  _349
REMARK  137  A    between atoms: _349  and  _350
REMARK  138  A    between atoms: _350  and  _351
REMARK  139  A    between atoms: _351  and  _352
REMARK  140  A    between atoms: _356  and  _358
REMARK  141  A    between atoms: _358  and  _359
REMARK  142  A    between atoms: _358  and  _361
REMARK  143  A    between atoms: _361  and  _362
REMARK  144  A    between atoms: _367  and  _368
REMARK  145  A    between atoms: _370  and  _372
REMARK  146  A    between atoms: _372  and  _373
REMARK  147  A    between atoms: _372  and  _375
REMARK  148  A    between atoms: _375  and  _376
REMARK  149  A    between atoms: _386  and  _388
REMARK  150  A    between atoms: _388  and  _389
REMARK  151  A    between atoms: _391  and  _393
REMARK  152  A    between atoms: _393  and  _394
REMARK  153  A    between atoms: _399  and  _400
REMARK  154  A    between atoms: _399  and  _402
REMARK  155  A    between atoms: _402  and  _403
REMARK  156  A    between atoms: _405  and  _407
REMARK  157  A    between atoms: _407  and  _408
REMARK  158  A    between atoms: _407  and  _410
REMARK  159  A    between atoms: _410  and  _411
REMARK  160  A    between atoms: _417  and  _419
REMARK  161  A    between atoms: _419  and  _420
REMARK  162  A    between atoms: _419  and  _422
REMARK  163  A    between atoms: _422  and  _423
REMARK  164  A    between atoms: _426  and  _428
REMARK  165  A    between atoms: _428  and  _429
REMARK  166  A    between atoms: _428  and  _431
REMARK  167  A    between atoms: _431  and  _432
REMARK  168  A    between atoms: _432  and  _433
REMARK  169  A    between atoms: _438  and  _440
REMARK  170  A    between atoms: _440  and  _441
REMARK  171  A    between atoms: _440  and  _443
REMARK  172  A    between atoms: _443  and  _444
REMARK  173  A    between atoms: _444  and  _445
REMARK  174  A    between atoms: _445  and  _446
REMARK  175  A    between atoms: _446  and  _447
REMARK  176  A    between atoms: _451  and  _453
REMARK  177  A    between atoms: _453  and  _454
REMARK  178  A    between atoms: _456  and  _458
REMARK  179  A    between atoms: _458  and  _459
REMARK  180  A    between atoms: _458  and  _461
REMARK  181  A    between atoms: _461  and  _462
REMARK  182  A    between atoms: _465  and  _467
REMARK  183  A    between atoms: _467  and  _468
REMARK  184  A    between atoms: _467  and  _470
REMARK  185  A    between atoms: _470  and  _471
REMARK  186  A    between atoms: _474  and  _476
REMARK  187  A    between atoms: _476  and  _477
REMARK  188  A    between atoms: _476  and  _479
REMARK  189  A    between atoms: _479  and  _480
REMARK  190  A    between atoms: _485  and  _487
REMARK  191  A    between atoms: _487  and  _488
REMARK  192  A    between atoms: _487  and  _490
REMARK  193  A    between atoms: _490  and  _491
REMARK  194  A    between atoms: _491  and  _492
REMARK  195  A    between atoms: _497  and  _499
REMARK  196  A    between atoms: _499  and  _500
REMARK  197  A    between atoms: _499  and  _502
REMARK  198  A    between atoms: _502  and  _503
REMARK  199  A    between atoms: _508  and  _509
REMARK  200  A    between atoms: _511  and  _513
REMARK  201  A    between atoms: _513  and  _514
REMARK  202  A    between atoms: _513  and  _516
REMARK  203  A    between atoms: _516  and  _517
REMARK  204  A    between atoms: _519  and  _521
REMARK  205  A    between atoms: _521  and  _522
REMARK  206  A    between atoms: _521  and  _524
REMARK  207  A    between atoms: _524  and  _525
REMARK  208  A    between atoms: _525  and  _526
REMARK  209  A    between atoms: _526  and  _527
REMARK  210  A    between atoms: _536  and  _538
REMARK  211  A    between atoms: _538  and  _539
REMARK  212  A    between atoms: _538  and  _541
REMARK  213  A    between atoms: _541  and  _542
REMARK  214  A    between atoms: _547  and  _548
REMARK  215  A    between atoms: _550  and  _552
REMARK  216  A    between atoms: _552  and  _553
REMARK  217  A    between atoms: _552  and  _555
REMARK  218  A    between atoms: _555  and  _556
REMARK  219  A    between atoms: _558  and  _560
REMARK  220  A    between atoms: _560  and  _561
REMARK  221  A    between atoms: _560  and  _563
REMARK  222  A    between atoms: _563  and  _564
REMARK  223  A    between atoms: _570  and  _572
REMARK  224  A    between atoms: _572  and  _573
REMARK  225  A    between atoms: _572  and  _575
REMARK  226  A    between atoms: _575  and  _576
REMARK                            x       y       z     vdW  Elec       q    Type
REMARK                         _______ _______ _______ _____ _____    ______ ____
ROOT
ATOM      1  N   PRO A   1      26.984  24.315  56.650  0.00  0.00    -0.212 NA
ATOM      2  CA  PRO A   1      26.273  23.240  57.336  0.00  0.00    +0.137 C 
ATOM      3  CB  PRO A   1      26.522  21.995  56.448  0.00  0.00    +0.027 C 
ATOM      4  CG  PRO A   1      27.863  22.264  55.771  0.00  0.00    +0.021 C 
ATOM      5  CD  PRO A   1      28.018  23.785  55.717  0.00  0.00    +0.089 C 
ENDROOT
BRANCH   2   6
ATOM      6  C   PRO A   1      27.011  22.986  58.649  0.00  0.00    +0.224 C 
ATOM      7  O   PRO A   1      27.946  23.722  59.025  0.00  0.00    -0.287 OA
ENDBRANCH   2   6
TORSDOF 1
REMARK  Name = ../refined-set-2016/1erb/1erb_pocket.pdb
REMARK  226 active torsions:
REMARK  status: ('A' for Active; 'I' for Inactive)
REMARK    1  A    between atoms: _1  and  _3
REMARK    2  A    between atoms: _3  and  _4
REMARK    3  A    between atoms: _3  and  _6
REMARK    4  A    between atoms: _6  and  _7
REMARK    5  A    between atoms: _13  and  _15
REMARK    6  A    between atoms: _15  and  _16
REMARK    7  A    between atoms: _15  and  _18
REMARK    8  A    between atoms: _18  and  _19
REMARK    9  A    between atoms: _29  and  _31
REMARK   10  A    between atoms: _31  and  _32
REMARK   11  A    between atoms: _36  and  _37
REMARK   12  A    between atoms: _42  and  _44
REMARK   13  A    between atoms: _44  and  _45
REMARK   14  A    between atoms: _47  and  _49
REMARK   15  A    between atoms: _49  and  _50
REMARK   16  A    between atoms: _49  and  _52
REMARK   17  A    between atoms: _52  and  _53
REMARK   18  A    between atoms: _56  and  _58
REMARK   19  A    between atoms: _58  and  _59
REMARK   20  A    between atoms: _58  and  _61
REMARK   21  A    between atoms: _61  and  _62
REMARK   22  A    between atoms: _68  and  _70
REMARK   23  A    between atoms: _70  and  _71
REMARK   24  A    between atoms: _70  and  _73
REMARK   25  A    between atoms: _73  and  _74
REMARK   26  A    between atoms: _77  and  _79
REMARK   27  A    between atoms: _79  and  _80
REMARK   28  A    between atoms: _79  and  _82
REMARK   29  A    between atoms: _82  and  _83
REMARK   30  A    between atoms: _83  and  _84
REMARK   31  A    between atoms: _89  and  _91
REMARK   32  A    between atoms: _91  and  _92
REMARK   33  A    between atoms: _91  and  _94
REMARK   34  A    between atoms: _94  and  _95
REMARK   35  A    between atoms: _98  and  _100
REMARK   36  A    between atoms: _100  and  _101
REMARK   37  A    between atoms: _100  and  _103
REMARK   38  A    between atoms: _106  and  _108
REMARK   39  A    between atoms: _108  and  _109
REMARK   40  A    between atoms: _112  and  _114
REMARK   41  A    between atoms: _114  and  _115
REMARK   42  A    between atoms: _114  and  _117
REMARK   43  A    between atoms: _117  and  _118
REMARK   44  A    between atoms: _118  and  _119
REMARK   45  A    between atoms: _122  and  _124
REMARK   46  A    between atoms: _124  and  _125
REMARK   47  A    between atoms: _124  and  _127
REMARK   48  A    between atoms: _127  and  _128
REMARK   49  A    between atoms: _134  and  _136
REMARK   50  A    between atoms: _136  and  _137
REMARK   51  A    between atoms: _136  and  _139
REMARK   52  A    between atoms: _139  and  _140
REMARK   53  A    between atoms: _142  and  _144
REMARK   54  A    between atoms: _144  and  _145
REMARK   55  A    between atoms: _148  and  _150
REMARK   56  A    between atoms: _150  and  _151
REMARK   57  A    between atoms: _150  and  _153
REMARK   58  A    between atoms: _153  and  _154
REMARK   59  A    between atoms: _157  and  _159
REMARK   60  A    between atoms: _159  and  _160
REMARK   61  A    between atoms: _163  and  _165
REMARK   62  A    between atoms: _165  and  _166
REMARK   63  A    between atoms: _165  and  _168
REMARK   64  A    between atoms: _168  and  _169
REMARK   65  A    between atoms: _169  and  _170
REMARK   66  A    between atoms: _170  and  _171
REMARK   67  A    between atoms: _171  and  _172
REMARK   68  A    between atoms: _176  and  _178
REMARK   69  A    between atoms: _178  and  _179
REMARK   70  A    between atoms: _181  and  _183
REMARK   71  A    between atoms: _183  and  _184
REMARK   72  A    between atoms: _183  and  _186
REMARK   73  A    between atoms: _186  and  _187
REMARK   74  A    between atoms: _187  and  _188
REMARK   75  A    between atoms: _188  and  _189
REMARK   76  A    between atoms: _198  and  _200
REMARK   77  A    between atoms: _200  and  _201
REMARK   78  A    between atoms: _200  and  _203
REMARK   79  A    between atoms: _206  and  _208
REMARK   80  A    between atoms: _208  and  _209
REMARK   81  A    between atoms: _208  and  _211
REMARK   82  A    between atoms: _211  and  _212
REMARK   83  A    between atoms: _212  and  _213
REMARK   84  A    between atoms: _213  and  _214
REMARK   85  A    between atoms: _223  and  _225
REMARK   86  A    between atoms: _225  and  _226
REMARK   87  A    between atoms: _225  and  _228
REMARK   88  A    between atoms: _228  and  _229
REMARK   89  A    between atoms: _232  and  _234
REMARK   90  A    between atoms: _234  and  _235
REMARK   91  A    between atoms: _234  and  _237
REMARK   92  A    between atoms: _237  and  _238
REMARK   93  A    between atoms: _241  and  _243
REMARK   94  A    between atoms: _243  and  _244
REMARK   95  A    between atoms: _243  and  _246
REMARK   96  A    between atoms: _246  and  _247
REMARK   97  A    between atoms: _252  and  _254
REMARK   98  A    between atoms: _254  and  _255
REMARK   99  A    between atoms: _254  and  _257
REMARK  100  A    between atoms: _257  and  _258
REMARK  101  A    between atoms: _268  and  _270
REMARK  102  A    between atoms: _270  and  _271
REMARK  103  A    between atoms: _270  and  _273
REMARK  104  A    between atoms: _276  and  _278
REMARK  105  A    between atoms: _278  and  _279
REMARK  106  A    between atoms: _282  and  _284
REMARK  107  A    between atoms: _284  and  _285
REMARK  108  A    between atoms: _284  and  _287
REMARK  109  A    between atoms: _287  and  _288
REMARK  110  A    between atoms: _291  and  _293
REMARK  111  A    between atoms: _293  and  _294
REMARK  112  A    between atoms: _293  and  _296
REMARK  113  A    between atoms: _296  and  _297
REMARK  114  A    between atoms: _297  and  _298
REMARK  115  A    between atoms: _300  and  _302
REMARK  116  A    between atoms: _302  and  _303
REMARK  117  A    between atoms: _302  and  _305
REMARK  118  A    between atoms: _308  and  _310
REMARK  119  A    between atoms: _310  and  _311
REMARK  120  A    between atoms: _313  and  _315
REMARK  121  A    between atoms: _315  and  _316
REMARK  122  A    between atoms: _315  and  _318
REMARK  123  A    between atoms: _318  and  _319
REMARK  124  A    between atoms: _322  and  _324
REMARK  125  A    between atoms: _324  and  _325
REMARK  126  A    between atoms: _324  and  _327
REMARK  127  A    between atoms: _327  and  _328
REMARK  128  A    between atoms: _334  and  _336
REMARK  129  A    between atoms: _336  and  _337
REMARK  130  A    between atoms: _336  and  _339
REMARK  131  A    between atoms: _339  and  _340
REMARK  132  A    between atoms: _340  and  _341
REMARK  133  A    between atoms: _343  and  _345
REMARK  134  A    between atoms: _345  and  _346
REMARK  135  A    between atoms: _345  and  _348
REMARK  136  A    between atoms: _348  and  _349
REMARK  137  A    between atoms: _349  and  _350
REMARK  138  A    between atoms: _350  and  _351
REMARK  139  A    between atoms: _351  and  _352
REMARK  140  A    between atoms: _356  and  _358
REMARK  141  A    between atoms: _358  and  _359
REMARK  142  A    between atoms: _358  and  _361
REMARK  143  A    between atoms: _361  and  _362
REMARK  144  A    between atoms: _367  and  _368
REMARK  145  A    between atoms: _370  and  _372
REMARK  146  A    between atoms: _372  and  _373
REMARK  147  A    between atoms: _372  and  _375
REMARK  148  A    between atoms: _375  and  _376
REMARK  149  A    between atoms: _386  and  _388
REMARK  150  A    between atoms: _388  and  _389
REMARK  151  A    between atoms: _391  and  _393
REMARK  152  A    between atoms: _393  and  _394
REMARK  153  A    between atoms: _399  and  _400
REMARK  154  A    between atoms: _399  and  _402
REMARK  155  A    between atoms: _402  and  _403
REMARK  156  A    between atoms: _405  and  _407
REMARK  157  A    between atoms: _407  and  _408
REMARK  158  A    between atoms: _407  and  _410
REMARK  159  A    between atoms: _410  and  _411
REMARK  160  A    between atoms: _417  and  _419
REMARK  161  A    between atoms: _419  and  _420
REMARK  162  A    between atoms: _419  and  _422
REMARK  163  A    between atoms: _422  and  _423
REMARK  164  A    between atoms: _426  and  _428
REMARK  165  A    between atoms: _428  and  _429
REMARK  166  A    between atoms: _428  and  _431
REMARK  167  A    between atoms: _431  and  _432
REMARK  168  A    between atoms: _432  and  _433
REMARK  169  A    between atoms: _438  and  _440
REMARK  170  A    between atoms: _440  and  _441
REMARK  171  A    between atoms: _440  and  _443
REMARK  172  A    between atoms: _443  and  _444
REMARK  173  A    between atoms: _444  and  _445
REMARK  174  A    between atoms: _445  and  _446
REMARK  175  A    between atoms: _446  and  _447
REMARK  176  A    between atoms: _451  and  _453
REMARK  177  A    between atoms: _453  and  _454
REMARK  178  A    between atoms: _456  and  _458
REMARK  179  A    between atoms: _458  and  _459
REMARK  180  A    between atoms: _458  and  _461
REMARK  181  A    between atoms: _461  and  _462
REMARK  182  A    between atoms: _465  and  _467
REMARK  183  A    between atoms: _467  and  _468
REMARK  184  A    between atoms: _467  and  _470
REMARK  185  A    between atoms: _470  and  _471
REMARK  186  A    between atoms: _474  and  _476
REMARK  187  A    between atoms: _476  and  _477
REMARK  188  A    between atoms: _476  and  _479
REMARK  189  A    between atoms: _479  and  _480
REMARK  190  A    between atoms: _485  and  _487
REMARK  191  A    between atoms: _487  and  _488
REMARK  192  A    between atoms: _487  and  _490
REMARK  193  A    between atoms: _490  and  _491
REMARK  194  A    between atoms: _491  and  _492
REMARK  195  A    between atoms: _497  and  _499
REMARK  196  A    between atoms: _499  and  _500
REMARK  197  A    between atoms: _499  and  _502
REMARK  198  A    between atoms: _502  and  _503
REMARK  199  A    between atoms: _508  and  _509
REMARK  200  A    between atoms: _511  and  _513
REMARK  201  A    between atoms: _513  and  _514
REMARK  202  A    between atoms: _513  and  _516
REMARK  203  A    between atoms: _516  and  _517
REMARK  204  A    between atoms: _519  and  _521
REMARK  205  A    between atoms: _521  and  _522
REMARK  206  A    between atoms: _521  and  _524
REMARK  207  A    between atoms: _524  and  _525
REMARK  208  A    between atoms: _525  and  _526
REMARK  209  A    between atoms: _526  and  _527
REMARK  210  A    between atoms: _536  and  _538
REMARK  211  A    between atoms: _538  and  _539
REMARK  212  A    between atoms: _538  and  _541
REMARK  213  A    between atoms: _541  and  _542
REMARK  214  A    between atoms: _547  and  _548
REMARK  215  A    between atoms: _550  and  _552
REMARK  216  A    between atoms: _552  and  _553
REMARK  217  A    between atoms: _552  and  _555
REMARK  218  A    between atoms: _555  and  _556
REMARK  219  A    between atoms: _558  and  _560
REMARK  220  A    between atoms: _560  and  _561
REMARK  221  A    between atoms: _560  and  _563
REMARK  222  A    between atoms: _563  and  _564
REMARK  223  A    between atoms: _570  and  _572
REMARK  224  A    between atoms: _572  and  _573
REMARK  225  A    between atoms: _572  and  _575
REMARK  226  A    between atoms: _575  and  _576
REMARK                            x       y       z     vdW  Elec       q    Type
REMARK                         _______ _______ _______ _____ _____    ______ ____
ROOT
ATOM      1  CA  PHE A   3      33.232  22.197  55.085  0.00  0.00    +0.153 C 
ENDROOT
BRANCH   1   2
ATOM      2  C   PHE A   3      34.354  22.838  54.303  0.00  0.00    +0.241 C 
ATOM      3  O   PHE A   3      35.436  22.955  54.850  0.00  0.00    -0.273 OA
ATOM      4  N   LEU A   4      34.045  23.237  53.112  0.00  0.00    -0.297 N 
ATOM      5  H   LEU A   4      33.086  23.077  52.742  0.00  0.00    +0.150 HD
BRANCH   4   6
ATOM      6  CA  LEU A   4      35.007  23.887  52.318  0.00  0.00    +0.149 C 
BRANCH   6   7
ATOM      7  C   LEU A   4      35.114  25.299  52.871  0.00  0.00    +0.241 C 
ATOM      8  O   LEU A   4      34.109  25.873  53.263  0.00  0.00    -0.273 OA
ATOM      9  N   GLN A   5      36.279  25.926  52.990  0.00  0.00    -0.298 N 
ATOM     10  H   GLN A   5      37.157  25.458  52.687  0.00  0.00    +0.150 HD
BRANCH   9  11
ATOM     11  CA  GLN A   5      36.323  27.266  53.544  0.00  0.00    +0.137 C 
BRANCH  11  12
ATOM     12  C   GLN A   5      36.167  28.393  52.538  0.00  0.00    +0.227 C 
ATOM     13  O   GLN A   5      35.161  29.105  52.514  0.00  0.00    -0.286 OA
ENDBRANCH  11  12
BRANCH  11  14
ATOM     14  CB  GLN A   5      37.647  27.518  54.299  0.00  0.00    +0.037 C 
BRANCH  14  15
ATOM     15  CG  GLN A   5      37.421  27.800  55.795  0.00  0.00    +0.087 C 
BRANCH  15  16
ATOM     16  CD  GLN A   5      37.103  26.486  56.469  0.00  0.00    +0.219 C 
ATOM     17  OE1 GLN A   5      38.013  25.710  56.771  0.00  0.00    -0.275 OA
ATOM     18  NE2 GLN A   5      35.821  26.152  56.533  0.00  0.00    -0.329 N 
ATOM     19 HE21 GLN A   5      35.547  25.200  56.849  0.00  0.00    +0.145 HD
ATOM     20 HE22 GLN A   5      35.090  26.842  56.267  0.00  0.00    +0.145 HD
ENDBRANCH  15  16
ENDBRANCH  14  15
ENDBRANCH  11  14
ENDBRANCH   9  11
ENDBRANCH   6   7
BRANCH   6  21
ATOM     21  CB  LEU A   4      34.441  23.827  50.890  0.00  0.00    +0.029 C 
BRANCH  21  22
ATOM     22  CG  LEU A   4      35.216  22.957  49.910  0.00  0.00    +0.002 C 
ATOM     23  CD2 LEU A   4      36.552  23.648  49.673  0.00  0.00    +0.000 C 
ATOM     24  CD1 LEU A   4      34.435  22.930  48.595  0.00  0.00    +0.000 C 
ENDBRANCH  21  22
ENDBRANCH   6  21
ENDBRANCH   4   6
ENDBRANCH   1   2
BRANCH   1  27
ATOM     25  C   LEU A   2      33.124  20.902  56.985  0.00  0.00    +0.241 C 
ATOM     26  O   LEU A   2      32.091  20.361  56.593  0.00  0.00    -0.273 OA
ATOM     27  N   PHE A   3      33.812  21.828  56.330  0.00  0.00    -0.297 N 
ATOM     28  H   PHE A   3      34.693  22.245  56.693  0.00  0.00    +0.150 HD
BRANCH  25  29
ATOM     29  CA  LEU A   2      33.702  20.476  58.256  0.00  0.00    +0.149 C 
BRANCH  29  31
ATOM     30  C   GLY A   1      31.631  20.926  59.598  0.00  0.00    +0.240 C 
ATOM     31  N   LEU A   2      32.686  20.188  59.230  0.00  0.00    -0.297 N 
ATOM     32  H   LEU A   2      32.784  19.276  59.719  0.00  0.00    +0.150 HD
ATOM     33  O   GLY A   1      31.415  22.053  59.183  0.00  0.00    -0.274 OA
BRANCH  30  34
ATOM     34  CA  GLY A   1      30.825  20.233  60.687  0.00  0.00    +0.169 C 
BRANCH  34  35
ATOM     35  N   GLY A   1      29.577  20.908  60.951  0.00  0.00    -0.236 NA
ATOM     36  H   GLY A   1      29.514  21.521  61.789  0.00  0.00    +0.142 HD
ENDBRANCH  34  35
ENDBRANCH  30  34
ENDBRANCH  29  31
BRANCH  29  37
ATOM     37  CB  LEU A   2      34.581  19.191  58.068  0.00  0.00    +0.029 C 
BRANCH  37  38
ATOM     38  CG  LEU A   2      34.456  18.180  59.183  0.00  0.00    +0.002 C 
ATOM     39  CD2 LEU A   2      35.487  18.540  60.241  0.00  0.00    +0.000 C 
ATOM     40  CD1 LEU A   2      34.594  16.782  58.553  0.00  0.00    +0.000 C 
ENDBRANCH  37  38
ENDBRANCH  29  37
ENDBRANCH  25  29
ENDBRANCH   1  27
BRANCH   1  41
ATOM     41  CB  PHE A   3      31.988  23.119  55.178  0.00  0.00    +0.055 C 
BRANCH  41  42
ATOM     42  CG  PHE A   3      31.090  23.142  53.961  0.00  0.00    -0.020 A 
ATOM     43  CD2 PHE A   3      30.595  21.950  53.437  0.00  0.00    -0.004 A 
ATOM     44  CE2 PHE A   3      29.788  21.909  52.296  0.00  0.00    -0.000 A 
ATOM     45  CZ  PHE A   3      29.471  23.112  51.664  0.00  0.00    -0.000 A 
ATOM     46  CE1 PHE A   3      29.945  24.328  52.156  0.00  0.00    -0.000 A 
ATOM     47  CD1 PHE A   3      30.749  24.324  53.302  0.00  0.00    -0.004 A 
ENDBRANCH  41  42
ENDBRANCH   1  41
TORSDOF 19
REMARK  Name = ../refined-set-2016/1erb/1erb_pocket.pdb
REMARK  226 active torsions:
REMARK  status: ('A' for Active; 'I' for Inactive)
REMARK    1  A    between atoms: _1  and  _3
REMARK    2  A    between atoms: _3  and  _4
REMARK    3  A    between atoms: _3  and  _6
REMARK    4  A    between atoms: _6  and  _7
REMARK    5  A    between atoms: _13  and  _15
REMARK    6  A    between atoms: _15  and  _16
REMARK    7  A    between atoms: _15  and  _18
REMARK    8  A    between atoms: _18  and  _19
REMARK    9  A    between atoms: _29  and  _31
REMARK   10  A    between atoms: _31  and  _32
REMARK   11  A    between atoms: _36  and  _37
REMARK   12  A    between atoms: _42  and  _44
REMARK   13  A    between atoms: _44  and  _45
REMARK   14  A    between atoms: _47  and  _49
REMARK   15  A    between atoms: _49  and  _50
REMARK   16  A    between atoms: _49  and  _52
REMARK   17  A    between atoms: _52  and  _53
REMARK   18  A    between atoms: _56  and  _58
REMARK   19  A    between atoms: _58  and  _59
REMARK   20  A    between atoms: _58  and  _61
REMARK   21  A    between atoms: _61  and  _62
REMARK   22  A    between atoms: _68  and  _70
REMARK   23  A    between atoms: _70  and  _71
REMARK   24  A    between atoms: _70  and  _73
REMARK   25  A    between atoms: _73  and  _74
REMARK   26  A    between atoms: _77  and  _79
REMARK   27  A    between atoms: _79  and  _80
REMARK   28  A    between atoms: _79  and  _82
REMARK   29  A    between atoms: _82  and  _83
REMARK   30  A    between atoms: _83  and  _84
REMARK   31  A    between atoms: _89  and  _91
REMARK   32  A    between atoms: _91  and  _92
REMARK   33  A    between atoms: _91  and  _94
REMARK   34  A    between atoms: _94  and  _95
REMARK   35  A    between atoms: _98  and  _100
REMARK   36  A    between atoms: _100  and  _101
REMARK   37  A    between atoms: _100  and  _103
REMARK   38  A    between atoms: _106  and  _108
REMARK   39  A    between atoms: _108  and  _109
REMARK   40  A    between atoms: _112  and  _114
REMARK   41  A    between atoms: _114  and  _115
REMARK   42  A    between atoms: _114  and  _117
REMARK   43  A    between atoms: _117  and  _118
REMARK   44  A    between atoms: _118  and  _119
REMARK   45  A    between atoms: _122  and  _124
REMARK   46  A    between atoms: _124  and  _125
REMARK   47  A    between atoms: _124  and  _127
REMARK   48  A    between atoms: _127  and  _128
REMARK   49  A    between atoms: _134  and  _136
REMARK   50  A    between atoms: _136  and  _137
REMARK   51  A    between atoms: _136  and  _139
REMARK   52  A    between atoms: _139  and  _140
REMARK   53  A    between atoms: _142  and  _144
REMARK   54  A    between atoms: _144  and  _145
REMARK   55  A    between atoms: _148  and  _150
REMARK   56  A    between atoms: _150  and  _151
REMARK   57  A    between atoms: _150  and  _153
REMARK   58  A    between atoms: _153  and  _154
REMARK   59  A    between atoms: _157  and  _159
REMARK   60  A    between atoms: _159  and  _160
REMARK   61  A    between atoms: _163  and  _165
REMARK   62  A    between atoms: _165  and  _166
REMARK   63  A    between atoms: _165  and  _168
REMARK   64  A    between atoms: _168  and  _169
REMARK   65  A    between atoms: _169  and  _170
REMARK   66  A    between atoms: _170  and  _171
REMARK   67  A    between atoms: _171  and  _172
REMARK   68  A    between atoms: _176  and  _178
REMARK   69  A    between atoms: _178  and  _179
REMARK   70  A    between atoms: _181  and  _183
REMARK   71  A    between atoms: _183  and  _184
REMARK   72  A    between atoms: _183  and  _186
REMARK   73  A    between atoms: _186  and  _187
REMARK   74  A    between atoms: _187  and  _188
REMARK   75  A    between atoms: _188  and  _189
REMARK   76  A    between atoms: _198  and  _200
REMARK   77  A    between atoms: _200  and  _201
REMARK   78  A    between atoms: _200  and  _203
REMARK   79  A    between atoms: _206  and  _208
REMARK   80  A    between atoms: _208  and  _209
REMARK   81  A    between atoms: _208  and  _211
REMARK   82  A    between atoms: _211  and  _212
REMARK   83  A    between atoms: _212  and  _213
REMARK   84  A    between atoms: _213  and  _214
REMARK   85  A    between atoms: _223  and  _225
REMARK   86  A    between atoms: _225  and  _226
REMARK   87  A    between atoms: _225  and  _228
REMARK   88  A    between atoms: _228  and  _229
REMARK   89  A    between atoms: _232  and  _234
REMARK   90  A    between atoms: _234  and  _235
REMARK   91  A    between atoms: _234  and  _237
REMARK   92  A    between atoms: _237  and  _238
REMARK   93  A    between atoms: _241  and  _243
REMARK   94  A    between atoms: _243  and  _244
REMARK   95  A    between atoms: _243  and  _246
REMARK   96  A    between atoms: _246  and  _247
REMARK   97  A    between atoms: _252  and  _254
REMARK   98  A    between atoms: _254  and  _255
REMARK   99  A    between atoms: _254  and  _257
REMARK  100  A    between atoms: _257  and  _258
REMARK  101  A    between atoms: _268  and  _270
REMARK  102  A    between atoms: _270  and  _271
REMARK  103  A    between atoms: _270  and  _273
REMARK  104  A    between atoms: _276  and  _278
REMARK  105  A    between atoms: _278  and  _279
REMARK  106  A    between atoms: _282  and  _284
REMARK  107  A    between atoms: _284  and  _285
REMARK  108  A    between atoms: _284  and  _287
REMARK  109  A    between atoms: _287  and  _288
REMARK  110  A    between atoms: _291  and  _293
REMARK  111  A    between atoms: _293  and  _294
REMARK  112  A    between atoms: _293  and  _296
REMARK  113  A    between atoms: _296  and  _297
REMARK  114  A    between atoms: _297  and  _298
REMARK  115  A    between atoms: _300  and  _302
REMARK  116  A    between atoms: _302  and  _303
REMARK  117  A    between atoms: _302  and  _305
REMARK  118  A    between atoms: _308  and  _310
REMARK  119  A    between atoms: _310  and  _311
REMARK  120  A    between atoms: _313  and  _315
REMARK  121  A    between atoms: _315  and  _316
REMARK  122  A    between atoms: _315  and  _318
REMARK  123  A    between atoms: _318  and  _319
REMARK  124  A    between atoms: _322  and  _324
REMARK  125  A    between atoms: _324  and  _325
REMARK  126  A    between atoms: _324  and  _327
REMARK  127  A    between atoms: _327  and  _328
REMARK  128  A    between atoms: _334  and  _336
REMARK  129  A    between atoms: _336  and  _337
REMARK  130  A    between atoms: _336  and  _339
REMARK  131  A    between atoms: _339  and  _340
REMARK  132  A    between atoms: _340  and  _341
REMARK  133  A    between atoms: _343  and  _345
REMARK  134  A    between atoms: _345  and  _346
REMARK  135  A    between atoms: _345  and  _348
REMARK  136  A    between atoms: _348  and  _349
REMARK  137  A    between atoms: _349  and  _350
REMARK  138  A    between atoms: _350  and  _351
REMARK  139  A    between atoms: _351  and  _352
REMARK  140  A    between atoms: _356  and  _358
REMARK  141  A    between atoms: _358  and  _359
REMARK  142  A    between atoms: _358  and  _361
REMARK  143  A    between atoms: _361  and  _362
REMARK  144  A    between atoms: _367  and  _368
REMARK  145  A    between atoms: _370  and  _372
REMARK  146  A    between atoms: _372  and  _373
REMARK  147  A    between atoms: _372  and  _375
REMARK  148  A    between atoms: _375  and  _376
REMARK  149  A    between atoms: _386  and  _388
REMARK  150  A    between atoms: _388  and  _389
REMARK  151  A    between atoms: _391  and  _393
REMARK  152  A    between atoms: _393  and  _394
REMARK  153  A    between atoms: _399  and  _400
REMARK  154  A    between atoms: _399  and  _402
REMARK  155  A    between atoms: _402  and  _403
REMARK  156  A    between atoms: _405  and  _407
REMARK  157  A    between atoms: _407  and  _408
REMARK  158  A    between atoms: _407  and  _410
REMARK  159  A    between atoms: _410  and  _411
REMARK  160  A    between atoms: _417  and  _419
REMARK  161  A    between atoms: _419  and  _420
REMARK  162  A    between atoms: _419  and  _422
REMARK  163  A    between atoms: _422  and  _423
REMARK  164  A    between atoms: _426  and  _428
REMARK  165  A    between atoms: _428  and  _429
REMARK  166  A    between atoms: _428  and  _431
REMARK  167  A    between atoms: _431  and  _432
REMARK  168  A    between atoms: _432  and  _433
REMARK  169  A    between atoms: _438  and  _440
REMARK  170  A    between atoms: _440  and  _441
REMARK  171  A    between atoms: _440  and  _443
REMARK  172  A    between atoms: _443  and  _444
REMARK  173  A    between atoms: _444  and  _445
REMARK  174  A    between atoms: _445  and  _446
REMARK  175  A    between atoms: _446  and  _447
REMARK  176  A    between atoms: _451  and  _453
REMARK  177  A    between atoms: _453  and  _454
REMARK  178  A    between atoms: _456  and  _458
REMARK  179  A    between atoms: _458  and  _459
REMARK  180  A    between atoms: _458  and  _461
REMARK  181  A    between atoms: _461  and  _462
REMARK  182  A    between atoms: _465  and  _467
REMARK  183  A    between atoms: _467  and  _468
REMARK  184  A    between atoms: _467  and  _470
REMARK  185  A    between atoms: _470  and  _471
REMARK  186  A    between atoms: _474  and  _476
REMARK  187  A    between atoms: _476  and  _477
REMARK  188  A    between atoms: _476  and  _479
REMARK  189  A    between atoms: _479  and  _480
REMARK  190  A    between atoms: _485  and  _487
REMARK  191  A    between atoms: _487  and  _488
REMARK  192  A    between atoms: _487  and  _490
REMARK  193  A    between atoms: _490  and  _491
REMARK  194  A    between atoms: _491  and  _492
REMARK  195  A    between atoms: _497  and  _499
REMARK  196  A    between atoms: _499  and  _500
REMARK  197  A    between atoms: _499  and  _502
REMARK  198  A    between atoms: _502  and  _503
REMARK  199  A    between atoms: _508  and  _509
REMARK  200  A    between atoms: _511  and  _513
REMARK  201  A    between atoms: _513  and  _514
REMARK  202  A    between atoms: _513  and  _516
REMARK  203  A    between atoms: _516  and  _517
REMARK  204  A    between atoms: _519  and  _521
REMARK  205  A    between atoms: _521  and  _522
REMARK  206  A    between atoms: _521  and  _524
REMARK  207  A    between atoms: _524  and  _525
REMARK  208  A    between atoms: _525  and  _526
REMARK  209  A    between atoms: _526  and  _527
REMARK  210  A    between atoms: _536  and  _538
REMARK  211  A    between atoms: _538  and  _539
REMARK  212  A    between atoms: _538  and  _541
REMARK  213  A    between atoms: _541  and  _542
REMARK  214  A    between atoms: _547  and  _548
REMARK  215  A    between atoms: _550  and  _552
REMARK  216  A    between atoms: _552  and  _553
REMARK  217  A    between atoms: _552  and  _555
REMARK  218  A    between atoms: _555  and  _556
REMARK  219  A    between atoms: _558  and  _560
REMARK  220  A    between atoms: _560  and  _561
REMARK  221  A    between atoms: _560  and  _563
REMARK  222  A    between atoms: _563  and  _564
REMARK  223  A    between atoms: _570  and  _572
REMARK  224  A    between atoms: _572  and  _573
REMARK  225  A    between atoms: _572  and  _575
REMARK  226  A    between atoms: _575  and  _576
REMARK                            x       y       z     vdW  Elec       q    Type
REMARK                         _______ _______ _______ _____ _____    ______ ____
ROOT
ATOM      1  C   ALA A   3      33.421  24.332  39.053  0.00  0.00    +0.241 C 
ATOM      2  O   ALA A   3      33.093  25.350  38.456  0.00  0.00    -0.273 OA
ATOM      3  N   GLU A   4      33.690  23.168  38.454  0.00  0.00    -0.297 N 
ATOM      4  H   GLU A   4      33.964  22.368  39.060  0.00  0.00    +0.150 HD
ENDROOT
BRANCH   1   5
ATOM      5  CA  ALA A   3      33.518  24.344  40.568  0.00  0.00    +0.149 C 
ATOM      6  CB  ALA A   3      32.108  24.171  41.107  0.00  0.00    +0.031 C 
BRANCH   5   9
ATOM      7  C   VAL A   2      35.235  25.615  41.728  0.00  0.00    +0.241 C 
ATOM      8  O   VAL A   2      35.902  24.621  42.020  0.00  0.00    -0.273 OA
ATOM      9  N   ALA A   3      34.096  25.577  41.051  0.00  0.00    -0.297 N 
ATOM     10  H   ALA A   3      33.599  26.470  40.860  0.00  0.00    +0.150 HD
BRANCH   7  11
ATOM     11  CA  VAL A   2      35.708  26.992  42.162  0.00  0.00    +0.148 C 
BRANCH  11  14
ATOM     12  C   ILE A   1      35.560  27.835  44.480  0.00  0.00    +0.238 C 
ATOM     13  O   ILE A   1      34.922  28.844  44.193  0.00  0.00    -0.274 OA
ATOM     14  N   VAL A   2      35.968  26.937  43.591  0.00  0.00    -0.297 N 
ATOM     15  H   VAL A   2      36.518  26.129  43.946  0.00  0.00    +0.150 HD
BRANCH  12  16
ATOM     16  CA  ILE A   1      35.945  27.527  45.915  0.00  0.00    +0.145 C 
BRANCH  16  17
ATOM     17  CB  ILE A   1      34.704  27.227  46.745  0.00  0.00    +0.025 C 
ATOM     18  CG2 ILE A   1      33.847  26.135  46.121  0.00  0.00    +0.002 C 
BRANCH  17  19
ATOM     19  CG1 ILE A   1      35.126  26.843  48.161  0.00  0.00    +0.002 C 
ATOM     20  CD1 ILE A   1      34.237  27.437  49.253  0.00  0.00    +0.000 C 
ENDBRANCH  17  19
ENDBRANCH  16  17
BRANCH  16  21
ATOM     21  N   ILE A   1      36.673  28.613  46.537  0.00  0.00    -0.238 NA
ATOM     22  H   ILE A   1      36.145  29.360  47.031  0.00  0.00    +0.142 HD
ENDBRANCH  16  21
ENDBRANCH  12  16
ENDBRANCH  11  14
BRANCH  11  23
ATOM     23  CB  VAL A   2      36.920  27.361  41.317  0.00  0.00    +0.027 C 
ATOM     24  CG2 VAL A   2      37.656  28.540  41.928  0.00  0.00    +0.002 C 
ATOM     25  CG1 VAL A   2      36.462  27.722  39.906  0.00  0.00    +0.002 C 
ENDBRANCH  11  23
ENDBRANCH   7  11
ENDBRANCH   5   9
ENDBRANCH   1   5
BRANCH   3  26
ATOM     26  CA  GLU A   4      33.629  22.934  37.020  0.00  0.00    +0.149 C 
BRANCH  26  27
ATOM     27  C   GLU A   4      32.604  21.835  36.751  0.00  0.00    +0.241 C 
ATOM     28  O   GLU A   4      32.824  20.679  37.138  0.00  0.00    -0.273 OA
ATOM     29  N   PHE A   5      31.481  22.178  36.111  0.00  0.00    -0.298 N 
ATOM     30  H   PHE A   5      31.345  23.165  35.812  0.00  0.00    +0.150 HD
BRANCH  29  31
ATOM     31  CA  PHE A   5      30.443  21.194  35.824  0.00  0.00    +0.141 C 
BRANCH  31  32
ATOM     32  C   PHE A   5      30.548  20.633  34.402  0.00  0.00    +0.227 C 
ATOM     33  O   PHE A   5      30.860  21.353  33.464  0.00  0.00    -0.286 OA
ENDBRANCH  31  32
BRANCH  31  34
ATOM     34  CB  PHE A   5      29.029  21.746  36.024  0.00  0.00    +0.054 C 
BRANCH  34  35
ATOM     35  CG  PHE A   5      28.600  21.882  37.472  0.00  0.00    -0.020 A 
ATOM     36  CD2 PHE A   5      29.112  22.889  38.285  0.00  0.00    -0.004 A 
ATOM     37  CE2 PHE A   5      28.719  23.007  39.631  0.00  0.00    -0.000 A 
ATOM     38  CZ  PHE A   5      27.795  22.112  40.150  0.00  0.00    -0.000 A 
ATOM     39  CE1 PHE A   5      27.264  21.102  39.349  0.00  0.00    -0.000 A 
ATOM     40  CD1 PHE A   5      27.676  20.997  38.012  0.00  0.00    -0.004 A 
ENDBRANCH  34  35
ENDBRANCH  31  34
ENDBRANCH  29  31
ENDBRANCH  26  27
BRANCH  26  41
ATOM     41  CB  GLU A   4      34.993  22.509  36.456  0.00  0.00    +0.041 C 
BRANCH  41  42
ATOM     42  CG  GLU A   4      35.046  22.618  34.922  0.00  0.00    +0.116 C 
BRANCH  42  43
ATOM     43  CD  GLU A   4      35.499  23.992  34.547  0.00  0.00    +0.365 C 
ATOM     44  OE2 GLU A   4      36.142  24.682  35.325  0.00  0.00    -0.246 OA
ATOM     45  OE1 GLU A   4      35.067  24.369  33.366  0.00  0.00    -0.246 OA
ENDBRANCH  42  43
ENDBRANCH  41  42
ENDBRANCH  26  41
ENDBRANCH   3  26
TORSDOF 18
REMARK  Name = ../refined-set-2016/1erb/1erb_pocket.pdb
REMARK  226 active torsions:
REMARK  status: ('A' for Active; 'I' for Inactive)
REMARK    1  A    between atoms: _1  and  _3
REMARK    2  A    between atoms: _3  and  _4
REMARK    3  A    between atoms: _3  and  _6
REMARK    4  A    between atoms: _6  and  _7
REMARK    5  A    between atoms: _13  and  _15
REMARK    6  A    between atoms: _15  and  _16
REMARK    7  A    between atoms: _15  and  _18
REMARK    8  A    between atoms: _18  and  _19
REMARK    9  A    between atoms: _29  and  _31
REMARK   10  A    between atoms: _31  and  _32
REMARK   11  A    between atoms: _36  and  _37
REMARK   12  A    between atoms: _42  and  _44
REMARK   13  A    between atoms: _44  and  _45
REMARK   14  A    between atoms: _47  and  _49
REMARK   15  A    between atoms: _49  and  _50
REMARK   16  A    between atoms: _49  and  _52
REMARK   17  A    between atoms: _52  and  _53
REMARK   18  A    between atoms: _56  and  _58
REMARK   19  A    between atoms: _58  and  _59
REMARK   20  A    between atoms: _58  and  _61
REMARK   21  A    between atoms: _61  and  _62
REMARK   22  A    between atoms: _68  and  _70
REMARK   23  A    between atoms: _70  and  _71
REMARK   24  A    between atoms: _70  and  _73
REMARK   25  A    between atoms: _73  and  _74
REMARK   26  A    between atoms: _77  and  _79
REMARK   27  A    between atoms: _79  and  _80
REMARK   28  A    between atoms: _79  and  _82
REMARK   29  A    between atoms: _82  and  _83
REMARK   30  A    between atoms: _83  and  _84
REMARK   31  A    between atoms: _89  and  _91
REMARK   32  A    between atoms: _91  and  _92
REMARK   33  A    between atoms: _91  and  _94
REMARK   34  A    between atoms: _94  and  _95
REMARK   35  A    between atoms: _98  and  _100
REMARK   36  A    between atoms: _100  and  _101
REMARK   37  A    between atoms: _100  and  _103
REMARK   38  A    between atoms: _106  and  _108
REMARK   39  A    between atoms: _108  and  _109
REMARK   40  A    between atoms: _112  and  _114
REMARK   41  A    between atoms: _114  and  _115
REMARK   42  A    between atoms: _114  and  _117
REMARK   43  A    between atoms: _117  and  _118
REMARK   44  A    between atoms: _118  and  _119
REMARK   45  A    between atoms: _122  and  _124
REMARK   46  A    between atoms: _124  and  _125
REMARK   47  A    between atoms: _124  and  _127
REMARK   48  A    between atoms: _127  and  _128
REMARK   49  A    between atoms: _134  and  _136
REMARK   50  A    between atoms: _136  and  _137
REMARK   51  A    between atoms: _136  and  _139
REMARK   52  A    between atoms: _139  and  _140
REMARK   53  A    between atoms: _142  and  _144
REMARK   54  A    between atoms: _144  and  _145
REMARK   55  A    between atoms: _148  and  _150
REMARK   56  A    between atoms: _150  and  _151
REMARK   57  A    between atoms: _150  and  _153
REMARK   58  A    between atoms: _153  and  _154
REMARK   59  A    between atoms: _157  and  _159
REMARK   60  A    between atoms: _159  and  _160
REMARK   61  A    between atoms: _163  and  _165
REMARK   62  A    between atoms: _165  and  _166
REMARK   63  A    between atoms: _165  and  _168
REMARK   64  A    between atoms: _168  and  _169
REMARK   65  A    between atoms: _169  and  _170
REMARK   66  A    between atoms: _170  and  _171
REMARK   67  A    between atoms: _171  and  _172
REMARK   68  A    between atoms: _176  and  _178
REMARK   69  A    between atoms: _178  and  _179
REMARK   70  A    between atoms: _181  and  _183
REMARK   71  A    between atoms: _183  and  _184
REMARK   72  A    between atoms: _183  and  _186
REMARK   73  A    between atoms: _186  and  _187
REMARK   74  A    between atoms: _187  and  _188
REMARK   75  A    between atoms: _188  and  _189
REMARK   76  A    between atoms: _198  and  _200
REMARK   77  A    between atoms: _200  and  _201
REMARK   78  A    between atoms: _200  and  _203
REMARK   79  A    between atoms: _206  and  _208
REMARK   80  A    between atoms: _208  and  _209
REMARK   81  A    between atoms: _208  and  _211
REMARK   82  A    between atoms: _211  and  _212
REMARK   83  A    between atoms: _212  and  _213
REMARK   84  A    between atoms: _213  and  _214
REMARK   85  A    between atoms: _223  and  _225
REMARK   86  A    between atoms: _225  and  _226
REMARK   87  A    between atoms: _225  and  _228
REMARK   88  A    between atoms: _228  and  _229
REMARK   89  A    between atoms: _232  and  _234
REMARK   90  A    between atoms: _234  and  _235
REMARK   91  A    between atoms: _234  and  _237
REMARK   92  A    between atoms: _237  and  _238
REMARK   93  A    between atoms: _241  and  _243
REMARK   94  A    between atoms: _243  and  _244
REMARK   95  A    between atoms: _243  and  _246
REMARK   96  A    between atoms: _246  and  _247
REMARK   97  A    between atoms: _252  and  _254
REMARK   98  A    between atoms: _254  and  _255
REMARK   99  A    between atoms: _254  and  _257
REMARK  100  A    between atoms: _257  and  _258
REMARK  101  A    between atoms: _268  and  _270
REMARK  102  A    between atoms: _270  and  _271
REMARK  103  A    between atoms: _270  and  _273
REMARK  104  A    between atoms: _276  and  _278
REMARK  105  A    between atoms: _278  and  _279
REMARK  106  A    between atoms: _282  and  _284
REMARK  107  A    between atoms: _284  and  _285
REMARK  108  A    between atoms: _284  and  _287
REMARK  109  A    between atoms: _287  and  _288
REMARK  110  A    between atoms: _291  and  _293
REMARK  111  A    between atoms: _293  and  _294
REMARK  112  A    between atoms: _293  and  _296
REMARK  113  A    between atoms: _296  and  _297
REMARK  114  A    between atoms: _297  and  _298
REMARK  115  A    between atoms: _300  and  _302
REMARK  116  A    between atoms: _302  and  _303
REMARK  117  A    between atoms: _302  and  _305
REMARK  118  A    between atoms: _308  and  _310
REMARK  119  A    between atoms: _310  and  _311
REMARK  120  A    between atoms: _313  and  _315
REMARK  121  A    between atoms: _315  and  _316
REMARK  122  A    between atoms: _315  and  _318
REMARK  123  A    between atoms: _318  and  _319
REMARK  124  A    between atoms: _322  and  _324
REMARK  125  A    between atoms: _324  and  _325
REMARK  126  A    between atoms: _324  and  _327
REMARK  127  A    between atoms: _327  and  _328
REMARK  128  A    between atoms: _334  and  _336
REMARK  129  A    between atoms: _336  and  _337
REMARK  130  A    between atoms: _336  and  _339
REMARK  131  A    between atoms: _339  and  _340
REMARK  132  A    between atoms: _340  and  _341
REMARK  133  A    between atoms: _343  and  _345
REMARK  134  A    between atoms: _345  and  _346
REMARK  135  A    between atoms: _345  and  _348
REMARK  136  A    between atoms: _348  and  _349
REMARK  137  A    between atoms: _349  and  _350
REMARK  138  A    between atoms: _350  and  _351
REMARK  139  A    between atoms: _351  and  _352
REMARK  140  A    between atoms: _356  and  _358
REMARK  141  A    between atoms: _358  and  _359
REMARK  142  A    between atoms: _358  and  _361
REMARK  143  A    between atoms: _361  and  _362
REMARK  144  A    between atoms: _367  and  _368
REMARK  145  A    between atoms: _370  and  _372
REMARK  146  A    between atoms: _372  and  _373
REMARK  147  A    between atoms: _372  and  _375
REMARK  148  A    between atoms: _375  and  _376
REMARK  149  A    between atoms: _386  and  _388
REMARK  150  A    between atoms: _388  and  _389
REMARK  151  A    between atoms: _391  and  _393
REMARK  152  A    between atoms: _393  and  _394
REMARK  153  A    between atoms: _399  and  _400
REMARK  154  A    between atoms: _399  and  _402
REMARK  155  A    between atoms: _402  and  _403
REMARK  156  A    between atoms: _405  and  _407
REMARK  157  A    between atoms: _407  and  _408
REMARK  158  A    between atoms: _407  and  _410
REMARK  159  A    between atoms: _410  and  _411
REMARK  160  A    between atoms: _417  and  _419
REMARK  161  A    between atoms: _419  and  _420
REMARK  162  A    between atoms: _419  and  _422
REMARK  163  A    between atoms: _422  and  _423
REMARK  164  A    between atoms: _426  and  _428
REMARK  165  A    between atoms: _428  and  _429
REMARK  166  A    between atoms: _428  and  _431
REMARK  167  A    between atoms: _431  and  _432
REMARK  168  A    between atoms: _432  and  _433
REMARK  169  A    between atoms: _438  and  _440
REMARK  170  A    between atoms: _440  and  _441
REMARK  171  A    between atoms: _440  and  _443
REMARK  172  A    between atoms: _443  and  _444
REMARK  173  A    between atoms: _444  and  _445
REMARK  174  A    between atoms: _445  and  _446
REMARK  175  A    between atoms: _446  and  _447
REMARK  176  A    between atoms: _451  and  _453
REMARK  177  A    between atoms: _453  and  _454
REMARK  178  A    between atoms: _456  and  _458
REMARK  179  A    between atoms: _458  and  _459
REMARK  180  A    between atoms: _458  and  _461
REMARK  181  A    between atoms: _461  and  _462
REMARK  182  A    between atoms: _465  and  _467
REMARK  183  A    between atoms: _467  and  _468
REMARK  184  A    between atoms: _467  and  _470
REMARK  185  A    between atoms: _470  and  _471
REMARK  186  A    between atoms: _474  and  _476
REMARK  187  A    between atoms: _476  and  _477
REMARK  188  A    between atoms: _476  and  _479
REMARK  189  A    between atoms: _479  and  _480
REMARK  190  A    between atoms: _485  and  _487
REMARK  191  A    between atoms: _487  and  _488
REMARK  192  A    between atoms: _487  and  _490
REMARK  193  A    between atoms: _490  and  _491
REMARK  194  A    between atoms: _491  and  _492
REMARK  195  A    between atoms: _497  and  _499
REMARK  196  A    between atoms: _499  and  _500
REMARK  197  A    between atoms: _499  and  _502
REMARK  198  A    between atoms: _502  and  _503
REMARK  199  A    between atoms: _508  and  _509
REMARK  200  A    between atoms: _511  and  _513
REMARK  201  A    between atoms: _513  and  _514
REMARK  202  A    between atoms: _513  and  _516
REMARK  203  A    between atoms: _516  and  _517
REMARK  204  A    between atoms: _519  and  _521
REMARK  205  A    between atoms: _521  and  _522
REMARK  206  A    between atoms: _521  and  _524
REMARK  207  A    between atoms: _524  and  _525
REMARK  208  A    between atoms: _525  and  _526
REMARK  209  A    between atoms: _526  and  _527
REMARK  210  A    between atoms: _536  and  _538
REMARK  211  A    between atoms: _538  and  _539
REMARK  212  A    between atoms: _538  and  _541
REMARK  213  A    between atoms: _541  and  _542
REMARK  214  A    between atoms: _547  and  _548
REMARK  215  A    between atoms: _550  and  _552
REMARK  216  A    between atoms: _552  and  _553
REMARK  217  A    between atoms: _552  and  _555
REMARK  218  A    between atoms: _555  and  _556
REMARK  219  A    between atoms: _558  and  _560
REMARK  220  A    between atoms: _560  and  _561
REMARK  221  A    between atoms: _560  and  _563
REMARK  222  A    between atoms: _563  and  _564
REMARK  223  A    between atoms: _570  and  _572
REMARK  224  A    between atoms: _572  and  _573
REMARK  225  A    between atoms: _572  and  _575
REMARK  226  A    between atoms: _575  and  _576
REMARK                            x       y       z     vdW  Elec       q    Type
REMARK                         _______ _______ _______ _____ _____    ______ ____
ROOT
ATOM      1  CA  ARG A   7      40.580  25.328  50.726  0.00  0.00    +0.149 C 
ENDROOT
BRANCH   1   3
ATOM      2  C   GLY A   6      39.726  24.430  48.682  0.00  0.00    +0.243 C 
ATOM      3  N   ARG A   7      39.770  25.429  49.536  0.00  0.00    -0.297 N 
ATOM      4  H   ARG A   7      39.220  26.293  49.354  0.00  0.00    +0.150 HD
ATOM      5  O   GLY A   6      40.351  23.385  48.857  0.00  0.00    -0.273 OA
BRANCH   2   6
ATOM      6  CA  GLY A   6      38.844  24.680  47.471  0.00  0.00    +0.176 C 
BRANCH   6   8
ATOM      7  C   LYS A   5      38.397  23.878  45.297  0.00  0.00    +0.241 C 
ATOM      8  N   GLY A   6      39.098  23.740  46.401  0.00  0.00    -0.295 N 
ATOM      9  H   GLY A   6      39.807  22.985  46.501  0.00  0.00    +0.150 HD
ATOM     10  O   LYS A   5      37.565  24.767  45.202  0.00  0.00    -0.273 OA
BRANCH   7  11
ATOM     11  CA  LYS A   5      38.636  22.898  44.167  0.00  0.00    +0.149 C 
BRANCH  11  14
ATOM     12  C   ALA A   4      36.943  21.360  43.406  0.00  0.00    +0.241 C 
ATOM     13  O   ALA A   4      37.610  20.379  43.723  0.00  0.00    -0.273 OA
ATOM     14  N   LYS A   5      37.354  22.600  43.580  0.00  0.00    -0.297 N 
ATOM     15  H   LYS A   5      36.737  23.384  43.286  0.00  0.00    +0.150 HD
BRANCH  12  16
ATOM     16  CA  ALA A   4      35.577  21.235  42.765  0.00  0.00    +0.149 C 
ATOM     17  CB  ALA A   4      34.424  21.499  43.710  0.00  0.00    +0.031 C 
BRANCH  16  19
ATOM     18  C   THR A   3      35.064  20.034  40.778  0.00  0.00    +0.243 C 
ATOM     19  N   ALA A   4      35.484  20.000  42.024  0.00  0.00    -0.297 N 
ATOM     20  H   ALA A   4      35.745  19.097  42.469  0.00  0.00    +0.150 HD
ATOM     21  O   THR A   3      34.727  21.055  40.192  0.00  0.00    -0.273 OA
BRANCH  18  22
ATOM     22  CA  THR A   3      34.999  18.719  40.061  0.00  0.00    +0.176 C 
BRANCH  22  25
ATOM     23  C   ALA A   2      32.891  17.807  39.351  0.00  0.00    +0.241 C 
ATOM     24  O   ALA A   2      33.083  16.754  39.976  0.00  0.00    -0.273 OA
ATOM     25  N   THR A   3      33.757  18.803  39.325  0.00  0.00    -0.295 N 
ATOM     26  H   THR A   3      33.544  19.656  38.770  0.00  0.00    +0.150 HD
BRANCH  23  27
ATOM     27  CA  ALA A   2      31.633  18.060  38.565  0.00  0.00    +0.149 C 
ATOM     28  CB  ALA A   2      30.801  19.015  39.407  0.00  0.00    +0.031 C 
BRANCH  27  30
ATOM     29  C   SER A   1      30.148  16.763  37.244  0.00  0.00    +0.241 C 
ATOM     30  N   ALA A   2      30.924  16.824  38.307  0.00  0.00    -0.297 N 
ATOM     31  H   ALA A   2      31.025  16.007  38.943  0.00  0.00    +0.150 HD
ATOM     32  O   SER A   1      30.003  17.701  36.475  0.00  0.00    -0.274 OA
BRANCH  29  33
ATOM     33  CA  SER A   1      29.441  15.457  36.961  0.00  0.00    +0.174 C 
BRANCH  33  34
ATOM     34  N   SER A   1      28.466  15.717  35.923  0.00  0.00    -0.236 NA
ATOM     35  H   SER A   1      28.658  16.420  35.181  0.00  0.00    +0.142 HD
ENDBRANCH  33  34
BRANCH  33  36
ATOM     36  CB  SER A   1      30.469  14.439  36.501  0.00  0.00    +0.163 C 
BRANCH  36  37
ATOM     37  OG  SER A   1      31.128  14.987  35.373  0.00  0.00    -0.380 OA
ATOM     38  H   SER A   1      30.466  15.161  34.658  0.00  0.00    +0.211 HD
ENDBRANCH  36  37
ENDBRANCH  33  36
ENDBRANCH  29  33
ENDBRANCH  27  30
ENDBRANCH  23  27
ENDBRANCH  22  25
BRANCH  22  39
ATOM     39  CB  THR A   3      36.283  18.577  39.227  0.00  0.00    +0.137 C 
ATOM     40  CG2 THR A   3      36.353  17.228  38.524  0.00  0.00    +0.034 C 
BRANCH  39  41
ATOM     41  OG1 THR A   3      36.336  19.646  38.312  0.00  0.00    -0.382 OA
ATOM     42  HG1 THR A   3      36.345  20.503  38.808  0.00  0.00    +0.210 HD
ENDBRANCH  39  41
ENDBRANCH  22  39
ENDBRANCH  18  22
ENDBRANCH  16  19
ENDBRANCH  12  16
ENDBRANCH  11  14
BRANCH  11  43
ATOM     43  CB  LYS A   5      39.363  23.551  43.027  0.00  0.00    +0.029 C 
BRANCH  43  44
ATOM     44  CG  LYS A   5      40.745  24.084  43.296  0.00  0.00    +0.000 C 
BRANCH  44  45
ATOM     45  CD  LYS A   5      41.386  24.377  41.952  0.00  0.00    -0.024 C 
BRANCH  45  46
ATOM     46  CE  LYS A   5      42.825  23.914  41.859  0.00  0.00    -0.086 C 
BRANCH  46  47
ATOM     47  NZ  LYS A   5      42.914  22.606  41.202  0.00  0.00    +0.380 N 
ATOM     48  HZ1 LYS A   5      42.373  21.907  41.749  0.00  0.00    -0.089 HD
ATOM     49  HZ2 LYS A   5      43.910  22.312  41.151  0.00  0.00    -0.089 HD
ATOM     50  HZ3 LYS A   5      42.522  22.675  40.241  0.00  0.00    -0.089 HD
ENDBRANCH  46  47
ENDBRANCH  45  46
ENDBRANCH  44  45
ENDBRANCH  43  44
ENDBRANCH  11  43
ENDBRANCH   7  11
ENDBRANCH   6   8
ENDBRANCH   2   6
ENDBRANCH   1   3
BRANCH   1  51
ATOM     51  C   ARG A   7      39.823  24.739  51.885  0.00  0.00    +0.241 C 
ATOM     52  N   VAL A   8      40.447  23.756  52.520  0.00  0.00    -0.297 N 
ATOM     53  H   VAL A   8      41.377  23.413  52.205  0.00  0.00    +0.150 HD
ATOM     54  O   ARG A   7      38.705  25.159  52.211  0.00  0.00    -0.273 OA
BRANCH  52  55
ATOM     55  CA  VAL A   8      39.780  23.177  53.673  0.00  0.00    +0.149 C 
BRANCH  55  56
ATOM     56  C   VAL A   8      40.673  23.314  54.893  0.00  0.00    +0.241 C 
ATOM     57  N   ARG A   9      40.080  23.698  56.020  0.00  0.00    -0.297 N 
ATOM     58  H   ARG A   9      39.060  23.901  56.043  0.00  0.00    +0.150 HD
ATOM     59  O   VAL A   8      41.891  23.097  54.828  0.00  0.00    -0.273 OA
BRANCH  57  60
ATOM     60  CA  ARG A   9      40.890  23.827  57.214  0.00  0.00    +0.149 C 
BRANCH  60  61
ATOM     61  C   ARG A   9      40.783  22.507  57.944  0.00  0.00    +0.241 C 
ATOM     62  O   ARG A   9      39.731  22.128  58.459  0.00  0.00    -0.273 OA
ATOM     63  N   LEU A  10      41.886  21.783  57.960  0.00  0.00    -0.297 N 
ATOM     64  H   LEU A  10      42.758  22.121  57.504  0.00  0.00    +0.150 HD
BRANCH  63  65
ATOM     65  CA  LEU A  10      41.841  20.512  58.629  0.00  0.00    +0.149 C 
BRANCH  65  66
ATOM     66  C   LEU A  10      41.628  20.737  60.110  0.00  0.00    +0.241 C 
ATOM     67  N   LEU A  11      40.971  19.780  60.744  0.00  0.00    -0.297 N 
ATOM     68  H   LEU A  11      40.640  18.941  60.226  0.00  0.00    +0.150 HD
ATOM     69  O   LEU A  10      42.036  21.759  60.658  0.00  0.00    -0.273 OA
BRANCH  67  70
ATOM     70  CA  LEU A  11      40.716  19.906  62.158  0.00  0.00    +0.149 C 
BRANCH  70  71
ATOM     71  C   LEU A  11      42.012  20.117  62.927  0.00  0.00    +0.241 C 
ATOM     72  O   LEU A  11      42.012  20.633  64.043  0.00  0.00    -0.273 OA
ATOM     73  N   ASN A  12      43.131  19.723  62.321  0.00  0.00    -0.298 N 
ATOM     74  H   ASN A  12      43.066  19.304  61.371  0.00  0.00    +0.150 HD
BRANCH  73  75
ATOM     75  CA  ASN A  12      44.442  19.858  62.941  0.00  0.00    +0.146 C 
BRANCH  75  76
ATOM     76  C   ASN A  12      45.154  21.148  62.567  0.00  0.00    +0.227 C 
ATOM     77  O   ASN A  12      46.361  21.266  62.759  0.00  0.00    -0.286 OA
ENDBRANCH  75  76
BRANCH  75  78
ATOM     78  CB  ASN A  12      45.351  18.711  62.471  0.00  0.00    +0.112 C 
BRANCH  78  79
ATOM     79  CG  ASN A  12      45.839  18.937  61.050  0.00  0.00    +0.222 C 
ATOM     80  ND2 ASN A  12      46.999  18.364  60.741  0.00  0.00    -0.329 N 
ATOM     81 HD21 ASN A  12      47.513  17.811  61.457  0.00  0.00    +0.145 HD
ATOM     82 HD22 ASN A  12      47.392  18.469  59.784  0.00  0.00    +0.145 HD
ATOM     83  OD1 ASN A  12      45.180  19.609  60.238  0.00  0.00    -0.275 OA
ENDBRANCH  78  79
ENDBRANCH  75  78
ENDBRANCH  73  75
ENDBRANCH  70  71
BRANCH  70  84
ATOM     84  CB  LEU A  11      39.917  18.703  62.693  0.00  0.00    +0.029 C 
BRANCH  84  85
ATOM     85  CG  LEU A  11      39.133  19.016  63.964  0.00  0.00    +0.002 C 
ATOM     86  CD2 LEU A  11      40.010  18.747  65.182  0.00  0.00    +0.000 C 
ATOM     87  CD1 LEU A  11      38.661  20.469  63.954  0.00  0.00    +0.000 C 
ENDBRANCH  84  85
ENDBRANCH  70  84
ENDBRANCH  67  70
ENDBRANCH  65  66
BRANCH  65  88
ATOM     88  CB  LEU A  10      43.070  19.648  58.335  0.00  0.00    +0.029 C 
BRANCH  88  89
ATOM     89  CG  LEU A  10      42.709  18.430  57.498  0.00  0.00    +0.002 C 
ATOM     90  CD2 LEU A  10      43.923  18.000  56.685  0.00  0.00    +0.000 C 
ATOM     91  CD1 LEU A  10      41.570  18.796  56.551  0.00  0.00    +0.000 C 
ENDBRANCH  88  89
ENDBRANCH  65  88
ENDBRANCH  63  65
ENDBRANCH  60  61
BRANCH  60  92
ATOM     92  CB  ARG A   9      40.597  25.020  58.120  0.00  0.00    +0.033 C 
BRANCH  92  93
ATOM     93  CG  ARG A   9      41.634  26.137  58.012  0.00  0.00    +0.045 C 
BRANCH  93  94
ATOM     94  CD  ARG A   9      42.914  25.901  58.811  0.00  0.00    +0.174 C 
BRANCH  94  95
ATOM     95  NE  ARG A   9      43.949  26.932  58.652  0.00  0.00    -0.265 N 
ATOM     96  CZ  ARG A   9      43.961  28.143  59.226  0.00  0.00    +0.342 C 
ATOM     97  NH2 ARG A   9      42.963  28.516  60.025  0.00  0.00    -0.292 N 
ATOM     98 HH21 ARG A   9      42.976  29.457  60.469  0.00  0.00    +0.255 HD
ATOM     99 HH22 ARG A   9      42.171  27.867  60.205  0.00  0.00    +0.255 HD
ATOM    100  NH1 ARG A   9      44.951  29.009  59.013  0.00  0.00    -0.292 N 
ATOM    101 HH11 ARG A   9      44.934  29.942  59.472  0.00  0.00    +0.255 HD
ATOM    102 HH12 ARG A   9      45.741  28.752  58.388  0.00  0.00    +0.255 HD
ATOM    103  HE  ARG A   9      44.751  26.699  58.033  0.00  0.00    +0.259 HD
ENDBRANCH  94  95
ENDBRANCH  93  94
ENDBRANCH  92  93
ENDBRANCH  60  92
ENDBRANCH  57  60
ENDBRANCH  55  56
BRANCH  55 104
ATOM    104  CB  VAL A   8      39.234  21.770  53.486  0.00  0.00    +0.027 C 
ATOM    105  CG2 VAL A   8      37.884  21.677  54.192  0.00  0.00    +0.002 C 
ATOM    106  CG1 VAL A   8      39.039  21.521  51.996  0.00  0.00    +0.002 C 
ENDBRANCH  55 104
ENDBRANCH  52  55
ENDBRANCH   1  51
BRANCH   1 107
ATOM    107  CB  ARG A   7      41.134  26.678  51.167  0.00  0.00    +0.033 C 
BRANCH 107 108
ATOM    108  CG  ARG A   7      41.863  26.575  52.503  0.00  0.00    +0.045 C 
BRANCH 108 109
ATOM    109  CD  ARG A   7      42.535  27.879  52.898  0.00  0.00    +0.174 C 
BRANCH 109 110
ATOM    110  NE  ARG A   7      41.565  28.916  53.220  0.00  0.00    -0.265 N 
ATOM    111  CZ  ARG A   7      41.242  29.239  54.469  0.00  0.00    +0.342 C 
ATOM    112  NH2 ARG A   7      41.836  28.593  55.470  0.00  0.00    -0.292 N 
ATOM    113 HH21 ARG A   7      41.599  28.829  56.455  0.00  0.00    +0.255 HD
ATOM    114 HH22 ARG A   7      42.537  27.852  55.267  0.00  0.00    +0.255 HD
ATOM    115  NH1 ARG A   7      40.352  30.188  54.748  0.00  0.00    -0.292 N 
ATOM    116 HH11 ARG A   7      40.125  30.413  55.738  0.00  0.00    +0.255 HD
ATOM    117 HH12 ARG A   7      39.884  30.705  53.976  0.00  0.00    +0.255 HD
ATOM    118  HE  ARG A   7      41.105  29.426  52.439  0.00  0.00    +0.259 HD
ENDBRANCH 109 110
ENDBRANCH 108 109
ENDBRANCH 107 108
ENDBRANCH   1 107
TORSDOF 48
REMARK  Name = ../refined-set-2016/1erb/1erb_pocket.pdb
REMARK  226 active torsions:
REMARK  status: ('A' for Active; 'I' for Inactive)
REMARK    1  A    between atoms: _1  and  _3
REMARK    2  A    between atoms: _3  and  _4
REMARK    3  A    between atoms: _3  and  _6
REMARK    4  A    between atoms: _6  and  _7
REMARK    5  A    between atoms: _13  and  _15
REMARK    6  A    between atoms: _15  and  _16
REMARK    7  A    between atoms: _15  and  _18
REMARK    8  A    between atoms: _18  and  _19
REMARK    9  A    between atoms: _29  and  _31
REMARK   10  A    between atoms: _31  and  _32
REMARK   11  A    between atoms: _36  and  _37
REMARK   12  A    between atoms: _42  and  _44
REMARK   13  A    between atoms: _44  and  _45
REMARK   14  A    between atoms: _47  and  _49
REMARK   15  A    between atoms: _49  and  _50
REMARK   16  A    between atoms: _49  and  _52
REMARK   17  A    between atoms: _52  and  _53
REMARK   18  A    between atoms: _56  and  _58
REMARK   19  A    between atoms: _58  and  _59
REMARK   20  A    between atoms: _58  and  _61
REMARK   21  A    between atoms: _61  and  _62
REMARK   22  A    between atoms: _68  and  _70
REMARK   23  A    between atoms: _70  and  _71
REMARK   24  A    between atoms: _70  and  _73
REMARK   25  A    between atoms: _73  and  _74
REMARK   26  A    between atoms: _77  and  _79
REMARK   27  A    between atoms: _79  and  _80
REMARK   28  A    between atoms: _79  and  _82
REMARK   29  A    between atoms: _82  and  _83
REMARK   30  A    between atoms: _83  and  _84
REMARK   31  A    between atoms: _89  and  _91
REMARK   32  A    between atoms: _91  and  _92
REMARK   33  A    between atoms: _91  and  _94
REMARK   34  A    between atoms: _94  and  _95
REMARK   35  A    between atoms: _98  and  _100
REMARK   36  A    between atoms: _100  and  _101
REMARK   37  A    between atoms: _100  and  _103
REMARK   38  A    between atoms: _106  and  _108
REMARK   39  A    between atoms: _108  and  _109
REMARK   40  A    between atoms: _112  and  _114
REMARK   41  A    between atoms: _114  and  _115
REMARK   42  A    between atoms: _114  and  _117
REMARK   43  A    between atoms: _117  and  _118
REMARK   44  A    between atoms: _118  and  _119
REMARK   45  A    between atoms: _122  and  _124
REMARK   46  A    between atoms: _124  and  _125
REMARK   47  A    between atoms: _124  and  _127
REMARK   48  A    between atoms: _127  and  _128
REMARK   49  A    between atoms: _134  and  _136
REMARK   50  A    between atoms: _136  and  _137
REMARK   51  A    between atoms: _136  and  _139
REMARK   52  A    between atoms: _139  and  _140
REMARK   53  A    between atoms: _142  and  _144
REMARK   54  A    between atoms: _144  and  _145
REMARK   55  A    between atoms: _148  and  _150
REMARK   56  A    between atoms: _150  and  _151
REMARK   57  A    between atoms: _150  and  _153
REMARK   58  A    between atoms: _153  and  _154
REMARK   59  A    between atoms: _157  and  _159
REMARK   60  A    between atoms: _159  and  _160
REMARK   61  A    between atoms: _163  and  _165
REMARK   62  A    between atoms: _165  and  _166
REMARK   63  A    between atoms: _165  and  _168
REMARK   64  A    between atoms: _168  and  _169
REMARK   65  A    between atoms: _169  and  _170
REMARK   66  A    between atoms: _170  and  _171
REMARK   67  A    between atoms: _171  and  _172
REMARK   68  A    between atoms: _176  and  _178
REMARK   69  A    between atoms: _178  and  _179
REMARK   70  A    between atoms: _181  and  _183
REMARK   71  A    between atoms: _183  and  _184
REMARK   72  A    between atoms: _183  and  _186
REMARK   73  A    between atoms: _186  and  _187
REMARK   74  A    between atoms: _187  and  _188
REMARK   75  A    between atoms: _188  and  _189
REMARK   76  A    between atoms: _198  and  _200
REMARK   77  A    between atoms: _200  and  _201
REMARK   78  A    between atoms: _200  and  _203
REMARK   79  A    between atoms: _206  and  _208
REMARK   80  A    between atoms: _208  and  _209
REMARK   81  A    between atoms: _208  and  _211
REMARK   82  A    between atoms: _211  and  _212
REMARK   83  A    between atoms: _212  and  _213
REMARK   84  A    between atoms: _213  and  _214
REMARK   85  A    between atoms: _223  and  _225
REMARK   86  A    between atoms: _225  and  _226
REMARK   87  A    between atoms: _225  and  _228
REMARK   88  A    between atoms: _228  and  _229
REMARK   89  A    between atoms: _232  and  _234
REMARK   90  A    between atoms: _234  and  _235
REMARK   91  A    between atoms: _234  and  _237
REMARK   92  A    between atoms: _237  and  _238
REMARK   93  A    between atoms: _241  and  _243
REMARK   94  A    between atoms: _243  and  _244
REMARK   95  A    between atoms: _243  and  _246
REMARK   96  A    between atoms: _246  and  _247
REMARK   97  A    between atoms: _252  and  _254
REMARK   98  A    between atoms: _254  and  _255
REMARK   99  A    between atoms: _254  and  _257
REMARK  100  A    between atoms: _257  and  _258
REMARK  101  A    between atoms: _268  and  _270
REMARK  102  A    between atoms: _270  and  _271
REMARK  103  A    between atoms: _270  and  _273
REMARK  104  A    between atoms: _276  and  _278
REMARK  105  A    between atoms: _278  and  _279
REMARK  106  A    between atoms: _282  and  _284
REMARK  107  A    between atoms: _284  and  _285
REMARK  108  A    between atoms: _284  and  _287
REMARK  109  A    between atoms: _287  and  _288
REMARK  110  A    between atoms: _291  and  _293
REMARK  111  A    between atoms: _293  and  _294
REMARK  112  A    between atoms: _293  and  _296
REMARK  113  A    between atoms: _296  and  _297
REMARK  114  A    between atoms: _297  and  _298
REMARK  115  A    between atoms: _300  and  _302
REMARK  116  A    between atoms: _302  and  _303
REMARK  117  A    between atoms: _302  and  _305
REMARK  118  A    between atoms: _308  and  _310
REMARK  119  A    between atoms: _310  and  _311
REMARK  120  A    between atoms: _313  and  _315
REMARK  121  A    between atoms: _315  and  _316
REMARK  122  A    between atoms: _315  and  _318
REMARK  123  A    between atoms: _318  and  _319
REMARK  124  A    between atoms: _322  and  _324
REMARK  125  A    between atoms: _324  and  _325
REMARK  126  A    between atoms: _324  and  _327
REMARK  127  A    between atoms: _327  and  _328
REMARK  128  A    between atoms: _334  and  _336
REMARK  129  A    between atoms: _336  and  _337
REMARK  130  A    between atoms: _336  and  _339
REMARK  131  A    between atoms: _339  and  _340
REMARK  132  A    between atoms: _340  and  _341
REMARK  133  A    between atoms: _343  and  _345
REMARK  134  A    between atoms: _345  and  _346
REMARK  135  A    between atoms: _345  and  _348
REMARK  136  A    between atoms: _348  and  _349
REMARK  137  A    between atoms: _349  and  _350
REMARK  138  A    between atoms: _350  and  _351
REMARK  139  A    between atoms: _351  and  _352
REMARK  140  A    between atoms: _356  and  _358
REMARK  141  A    between atoms: _358  and  _359
REMARK  142  A    between atoms: _358  and  _361
REMARK  143  A    between atoms: _361  and  _362
REMARK  144  A    between atoms: _367  and  _368
REMARK  145  A    between atoms: _370  and  _372
REMARK  146  A    between atoms: _372  and  _373
REMARK  147  A    between atoms: _372  and  _375
REMARK  148  A    between atoms: _375  and  _376
REMARK  149  A    between atoms: _386  and  _388
REMARK  150  A    between atoms: _388  and  _389
REMARK  151  A    between atoms: _391  and  _393
REMARK  152  A    between atoms: _393  and  _394
REMARK  153  A    between atoms: _399  and  _400
REMARK  154  A    between atoms: _399  and  _402
REMARK  155  A    between atoms: _402  and  _403
REMARK  156  A    between atoms: _405  and  _407
REMARK  157  A    between atoms: _407  and  _408
REMARK  158  A    between atoms: _407  and  _410
REMARK  159  A    between atoms: _410  and  _411
REMARK  160  A    between atoms: _417  and  _419
REMARK  161  A    between atoms: _419  and  _420
REMARK  162  A    between atoms: _419  and  _422
REMARK  163  A    between atoms: _422  and  _423
REMARK  164  A    between atoms: _426  and  _428
REMARK  165  A    between atoms: _428  and  _429
REMARK  166  A    between atoms: _428  and  _431
REMARK  167  A    between atoms: _431  and  _432
REMARK  168  A    between atoms: _432  and  _433
REMARK  169  A    between atoms: _438  and  _440
REMARK  170  A    between atoms: _440  and  _441
REMARK  171  A    between atoms: _440  and  _443
REMARK  172  A    between atoms: _443  and  _444
REMARK  173  A    between atoms: _444  and  _445
REMARK  174  A    between atoms: _445  and  _446
REMARK  175  A    between atoms: _446  and  _447
REMARK  176  A    between atoms: _451  and  _453
REMARK  177  A    between atoms: _453  and  _454
REMARK  178  A    between atoms: _456  and  _458
REMARK  179  A    between atoms: _458  and  _459
REMARK  180  A    between atoms: _458  and  _461
REMARK  181  A    between atoms: _461  and  _462
REMARK  182  A    between atoms: _465  and  _467
REMARK  183  A    between atoms: _467  and  _468
REMARK  184  A    between atoms: _467  and  _470
REMARK  185  A    between atoms: _470  and  _471
REMARK  186  A    between atoms: _474  and  _476
REMARK  187  A    between atoms: _476  and  _477
REMARK  188  A    between atoms: _476  and  _479
REMARK  189  A    between atoms: _479  and  _480
REMARK  190  A    between atoms: _485  and  _487
REMARK  191  A    between atoms: _487  and  _488
REMARK  192  A    between atoms: _487  and  _490
REMARK  193  A    between atoms: _490  and  _491
REMARK  194  A    between atoms: _491  and  _492
REMARK  195  A    between atoms: _497  and  _499
REMARK  196  A    between atoms: _499  and  _500
REMARK  197  A    between atoms: _499  and  _502
REMARK  198  A    between atoms: _502  and  _503
REMARK  199  A    between atoms: _508  and  _509
REMARK  200  A    between atoms: _511  and  _513
REMARK  201  A    between atoms: _513  and  _514
REMARK  202  A    between atoms: _513  and  _516
REMARK  203  A    between atoms: _516  and  _517
REMARK  204  A    between atoms: _519  and  _521
REMARK  205  A    between atoms: _521  and  _522
REMARK  206  A    between atoms: _521  and  _524
REMARK  207  A    between atoms: _524  and  _525
REMARK  208  A    between atoms: _525  and  _526
REMARK  209  A    between atoms: _526  and  _527
REMARK  210  A    between atoms: _536  and  _538
REMARK  211  A    between atoms: _538  and  _539
REMARK  212  A    between atoms: _538  and  _541
REMARK  213  A    between atoms: _541  and  _542
REMARK  214  A    between atoms: _547  and  _548
REMARK  215  A    between atoms: _550  and  _552
REMARK  216  A    between atoms: _552  and  _553
REMARK  217  A    between atoms: _552  and  _555
REMARK  218  A    between atoms: _555  and  _556
REMARK  219  A    between atoms: _558  and  _560
REMARK  220  A    between atoms: _560  and  _561
REMARK  221  A    between atoms: _560  and  _563
REMARK  222  A    between atoms: _563  and  _564
REMARK  223  A    between atoms: _570  and  _572
REMARK  224  A    between atoms: _572  and  _573
REMARK  225  A    between atoms: _572  and  _575
REMARK  226  A    between atoms: _575  and  _576
REMARK                            x       y       z     vdW  Elec       q    Type
REMARK                         _______ _______ _______ _____ _____    ______ ____
ROOT
ATOM      1  CG  TRP A   1      47.117  19.599  57.720  0.00  0.00    -0.002 A 
ATOM      2  CD2 TRP A   1      48.279  19.529  58.551  0.00  0.00    +0.013 A 
ATOM      3  CE3 TRP A   1      48.834  20.369  59.513  0.00  0.00    +0.001 A 
ATOM      4  CZ3 TRP A   1      49.996  19.985  60.142  0.00  0.00    +0.000 A 
ATOM      5  CH2 TRP A   1      50.617  18.772  59.838  0.00  0.00    +0.001 A 
ATOM      6  CZ2 TRP A   1      50.090  17.918  58.897  0.00  0.00    +0.017 A 
ATOM      7  CE2 TRP A   1      48.913  18.304  58.253  0.00  0.00    +0.056 A 
ATOM      8  NE1 TRP A   1      48.166  17.674  57.291  0.00  0.00    -0.352 N 
ATOM      9  HE1 TRP A   1      48.382  16.750  56.865  0.00  0.00    +0.166 HD
ATOM     10  CD1 TRP A   1      47.090  18.461  56.985  0.00  0.00    +0.068 A 
ENDROOT
BRANCH   1  11
ATOM     11  CB  TRP A   1      46.079  20.668  57.652  0.00  0.00    +0.053 C 
BRANCH  11  12
ATOM     12  CA  TRP A   1      46.306  22.062  58.274  0.00  0.00    +0.137 C 
BRANCH  12  13
ATOM     13  N   TRP A   1      45.671  22.234  59.570  0.00  0.00    -0.239 NA
ATOM     14  H   TRP A   1      45.101  21.452  59.951  0.00  0.00    +0.142 HD
ENDBRANCH  12  13
BRANCH  12  15
ATOM     15  C   TRP A   1      45.397  22.744  57.294  0.00  0.00    +0.224 C 
ATOM     16  O   TRP A   1      44.178  22.604  57.379  0.00  0.00    -0.287 OA
ENDBRANCH  12  15
ENDBRANCH  11  12
ENDBRANCH   1  11
TORSDOF 4
REMARK  Name = ../refined-set-2016/1erb/1erb_pocket.pdb
REMARK  226 active torsions:
REMARK  status: ('A' for Active; 'I' for Inactive)
REMARK    1  A    between atoms: _1  and  _3
REMARK    2  A    between atoms: _3  and  _4
REMARK    3  A    between atoms: _3  and  _6
REMARK    4  A    between atoms: _6  and  _7
REMARK    5  A    between atoms: _13  and  _15
REMARK    6  A    between atoms: _15  and  _16
REMARK    7  A    between atoms: _15  and  _18
REMARK    8  A    between atoms: _18  and  _19
REMARK    9  A    between atoms: _29  and  _31
REMARK   10  A    between atoms: _31  and  _32
REMARK   11  A    between atoms: _36  and  _37
REMARK   12  A    between atoms: _42  and  _44
REMARK   13  A    between atoms: _44  and  _45
REMARK   14  A    between atoms: _47  and  _49
REMARK   15  A    between atoms: _49  and  _50
REMARK   16  A    between atoms: _49  and  _52
REMARK   17  A    between atoms: _52  and  _53
REMARK   18  A    between atoms: _56  and  _58
REMARK   19  A    between atoms: _58  and  _59
REMARK   20  A    between atoms: _58  and  _61
REMARK   21  A    between atoms: _61  and  _62
REMARK   22  A    between atoms: _68  and  _70
REMARK   23  A    between atoms: _70  and  _71
REMARK   24  A    between atoms: _70  and  _73
REMARK   25  A    between atoms: _73  and  _74
REMARK   26  A    between atoms: _77  and  _79
REMARK   27  A    between atoms: _79  and  _80
REMARK   28  A    between atoms: _79  and  _82
REMARK   29  A    between atoms: _82  and  _83
REMARK   30  A    between atoms: _83  and  _84
REMARK   31  A    between atoms: _89  and  _91
REMARK   32  A    between atoms: _91  and  _92
REMARK   33  A    between atoms: _91  and  _94
REMARK   34  A    between atoms: _94  and  _95
REMARK   35  A    between atoms: _98  and  _100
REMARK   36  A    between atoms: _100  and  _101
REMARK   37  A    between atoms: _100  and  _103
REMARK   38  A    between atoms: _106  and  _108
REMARK   39  A    between atoms: _108  and  _109
REMARK   40  A    between atoms: _112  and  _114
REMARK   41  A    between atoms: _114  and  _115
REMARK   42  A    between atoms: _114  and  _117
REMARK   43  A    between atoms: _117  and  _118
REMARK   44  A    between atoms: _118  and  _119
REMARK   45  A    between atoms: _122  and  _124
REMARK   46  A    between atoms: _124  and  _125
REMARK   47  A    between atoms: _124  and  _127
REMARK   48  A    between atoms: _127  and  _128
REMARK   49  A    between atoms: _134  and  _136
REMARK   50  A    between atoms: _136  and  _137
REMARK   51  A    between atoms: _136  and  _139
REMARK   52  A    between atoms: _139  and  _140
REMARK   53  A    between atoms: _142  and  _144
REMARK   54  A    between atoms: _144  and  _145
REMARK   55  A    between atoms: _148  and  _150
REMARK   56  A    between atoms: _150  and  _151
REMARK   57  A    between atoms: _150  and  _153
REMARK   58  A    between atoms: _153  and  _154
REMARK   59  A    between atoms: _157  and  _159
REMARK   60  A    between atoms: _159  and  _160
REMARK   61  A    between atoms: _163  and  _165
REMARK   62  A    between atoms: _165  and  _166
REMARK   63  A    between atoms: _165  and  _168
REMARK   64  A    between atoms: _168  and  _169
REMARK   65  A    between atoms: _169  and  _170
REMARK   66  A    between atoms: _170  and  _171
REMARK   67  A    between atoms: _171  and  _172
REMARK   68  A    between atoms: _176  and  _178
REMARK   69  A    between atoms: _178  and  _179
REMARK   70  A    between atoms: _181  and  _183
REMARK   71  A    between atoms: _183  and  _184
REMARK   72  A    between atoms: _183  and  _186
REMARK   73  A    between atoms: _186  and  _187
REMARK   74  A    between atoms: _187  and  _188
REMARK   75  A    between atoms: _188  and  _189
REMARK   76  A    between atoms: _198  and  _200
REMARK   77  A    between atoms: _200  and  _201
REMARK   78  A    between atoms: _200  and  _203
REMARK   79  A    between atoms: _206  and  _208
REMARK   80  A    between atoms: _208  and  _209
REMARK   81  A    between atoms: _208  and  _211
REMARK   82  A    between atoms: _211  and  _212
REMARK   83  A    between atoms: _212  and  _213
REMARK   84  A    between atoms: _213  and  _214
REMARK   85  A    between atoms: _223  and  _225
REMARK   86  A    between atoms: _225  and  _226
REMARK   87  A    between atoms: _225  and  _228
REMARK   88  A    between atoms: _228  and  _229
REMARK   89  A    between atoms: _232  and  _234
REMARK   90  A    between atoms: _234  and  _235
REMARK   91  A    between atoms: _234  and  _237
REMARK   92  A    between atoms: _237  and  _238
REMARK   93  A    between atoms: _241  and  _243
REMARK   94  A    between atoms: _243  and  _244
REMARK   95  A    between atoms: _243  and  _246
REMARK   96  A    between atoms: _246  and  _247
REMARK   97  A    between atoms: _252  and  _254
REMARK   98  A    between atoms: _254  and  _255
REMARK   99  A    between atoms: _254  and  _257
REMARK  100  A    between atoms: _257  and  _258
REMARK  101  A    between atoms: _268  and  _270
REMARK  102  A    between atoms: _270  and  _271
REMARK  103  A    between atoms: _270  and  _273
REMARK  104  A    between atoms: _276  and  _278
REMARK  105  A    between atoms: _278  and  _279
REMARK  106  A    between atoms: _282  and  _284
REMARK  107  A    between atoms: _284  and  _285
REMARK  108  A    between atoms: _284  and  _287
REMARK  109  A    between atoms: _287  and  _288
REMARK  110  A    between atoms: _291  and  _293
REMARK  111  A    between atoms: _293  and  _294
REMARK  112  A    between atoms: _293  and  _296
REMARK  113  A    between atoms: _296  and  _297
REMARK  114  A    between atoms: _297  and  _298
REMARK  115  A    between atoms: _300  and  _302
REMARK  116  A    between atoms: _302  and  _303
REMARK  117  A    between atoms: _302  and  _305
REMARK  118  A    between atoms: _308  and  _310
REMARK  119  A    between atoms: _310  and  _311
REMARK  120  A    between atoms: _313  and  _315
REMARK  121  A    between atoms: _315  and  _316
REMARK  122  A    between atoms: _315  and  _318
REMARK  123  A    between atoms: _318  and  _319
REMARK  124  A    between atoms: _322  and  _324
REMARK  125  A    between atoms: _324  and  _325
REMARK  126  A    between atoms: _324  and  _327
REMARK  127  A    between atoms: _327  and  _328
REMARK  128  A    between atoms: _334  and  _336
REMARK  129  A    between atoms: _336  and  _337
REMARK  130  A    between atoms: _336  and  _339
REMARK  131  A    between atoms: _339  and  _340
REMARK  132  A    between atoms: _340  and  _341
REMARK  133  A    between atoms: _343  and  _345
REMARK  134  A    between atoms: _345  and  _346
REMARK  135  A    between atoms: _345  and  _348
REMARK  136  A    between atoms: _348  and  _349
REMARK  137  A    between atoms: _349  and  _350
REMARK  138  A    between atoms: _350  and  _351
REMARK  139  A    between atoms: _351  and  _352
REMARK  140  A    between atoms: _356  and  _358
REMARK  141  A    between atoms: _358  and  _359
REMARK  142  A    between atoms: _358  and  _361
REMARK  143  A    between atoms: _361  and  _362
REMARK  144  A    between atoms: _367  and  _368
REMARK  145  A    between atoms: _370  and  _372
REMARK  146  A    between atoms: _372  and  _373
REMARK  147  A    between atoms: _372  and  _375
REMARK  148  A    between atoms: _375  and  _376
REMARK  149  A    between atoms: _386  and  _388
REMARK  150  A    between atoms: _388  and  _389
REMARK  151  A    between atoms: _391  and  _393
REMARK  152  A    between atoms: _393  and  _394
REMARK  153  A    between atoms: _399  and  _400
REMARK  154  A    between atoms: _399  and  _402
REMARK  155  A    between atoms: _402  and  _403
REMARK  156  A    between atoms: _405  and  _407
REMARK  157  A    between atoms: _407  and  _408
REMARK  158  A    between atoms: _407  and  _410
REMARK  159  A    between atoms: _410  and  _411
REMARK  160  A    between atoms: _417  and  _419
REMARK  161  A    between atoms: _419  and  _420
REMARK  162  A    between atoms: _419  and  _422
REMARK  163  A    between atoms: _422  and  _423
REMARK  164  A    between atoms: _426  and  _428
REMARK  165  A    between atoms: _428  and  _429
REMARK  166  A    between atoms: _428  and  _431
REMARK  167  A    between atoms: _431  and  _432
REMARK  168  A    between atoms: _432  and  _433
REMARK  169  A    between atoms: _438  and  _440
REMARK  170  A    between atoms: _440  and  _441
REMARK  171  A    between atoms: _440  and  _443
REMARK  172  A    between atoms: _443  and  _444
REMARK  173  A    between atoms: _444  and  _445
REMARK  174  A    between atoms: _445  and  _446
REMARK  175  A    between atoms: _446  and  _447
REMARK  176  A    between atoms: _451  and  _453
REMARK  177  A    between atoms: _453  and  _454
REMARK  178  A    between atoms: _456  and  _458
REMARK  179  A    between atoms: _458  and  _459
REMARK  180  A    between atoms: _458  and  _461
REMARK  181  A    between atoms: _461  and  _462
REMARK  182  A    between atoms: _465  and  _467
REMARK  183  A    between atoms: _467  and  _468
REMARK  184  A    between atoms: _467  and  _470
REMARK  185  A    between atoms: _470  and  _471
REMARK  186  A    between atoms: _474  and  _476
REMARK  187  A    between atoms: _476  and  _477
REMARK  188  A    between atoms: _476  and  _479
REMARK  189  A    between atoms: _479  and  _480
REMARK  190  A    between atoms: _485  and  _487
REMARK  191  A    between atoms: _487  and  _488
REMARK  192  A    between atoms: _487  and  _490
REMARK  193  A    between atoms: _490  and  _491
REMARK  194  A    between atoms: _491  and  _492
REMARK  195  A    between atoms: _497  and  _499
REMARK  196  A    between atoms: _499  and  _500
REMARK  197  A    between atoms: _499  and  _502
REMARK  198  A    between atoms: _502  and  _503
REMARK  199  A    between atoms: _508  and  _509
REMARK  200  A    between atoms: _511  and  _513
REMARK  201  A    between atoms: _513  and  _514
REMARK  202  A    between atoms: _513  and  _516
REMARK  203  A    between atoms: _516  and  _517
REMARK  204  A    between atoms: _519  and  _521
REMARK  205  A    between atoms: _521  and  _522
REMARK  206  A    between atoms: _521  and  _524
REMARK  207  A    between atoms: _524  and  _525
REMARK  208  A    between atoms: _525  and  _526
REMARK  209  A    between atoms: _526  and  _527
REMARK  210  A    between atoms: _536  and  _538
REMARK  211  A    between atoms: _538  and  _539
REMARK  212  A    between atoms: _538  and  _541
REMARK  213  A    between atoms: _541  and  _542
REMARK  214  A    between atoms: _547  and  _548
REMARK  215  A    between atoms: _550  and  _552
REMARK  216  A    between atoms: _552  and  _553
REMARK  217  A    between atoms: _552  and  _555
REMARK  218  A    between atoms: _555  and  _556
REMARK  219  A    between atoms: _558  and  _560
REMARK  220  A    between atoms: _560  and  _561
REMARK  221  A    between atoms: _560  and  _563
REMARK  222  A    between atoms: _563  and  _564
REMARK  223  A    between atoms: _570  and  _572
REMARK  224  A    between atoms: _572  and  _573
REMARK  225  A    between atoms: _572  and  _575
REMARK  226  A    between atoms: _575  and  _576
REMARK                            x       y       z     vdW  Elec       q    Type
REMARK                         _______ _______ _______ _____ _____    ______ ____
ROOT
ATOM      1  CA  VAL A   1      44.712  21.907  52.355  0.00  0.00    +0.133 C 
ENDROOT
BRANCH   1   2
ATOM      2  CB  VAL A   1      44.508  20.405  52.467  0.00  0.00    +0.023 C 
ATOM      3  CG2 VAL A   1      45.440  19.794  53.501  0.00  0.00    +0.002 C 
ATOM      4  CG1 VAL A   1      43.045  20.103  52.768  0.00  0.00    +0.002 C 
ENDBRANCH   1   2
BRANCH   1   5
ATOM      5  N   VAL A   1      44.403  22.683  53.533  0.00  0.00    -0.239 NA
ATOM      6  H   VAL A   1      43.431  22.800  53.884  0.00  0.00    +0.142 HD
ENDBRANCH   1   5
BRANCH   1   7
ATOM      7  C   VAL A   1      43.833  22.373  51.220  0.00  0.00    +0.224 C 
ATOM      8  O   VAL A   1      42.695  22.820  51.386  0.00  0.00    -0.287 OA
ENDBRANCH   1   7
TORSDOF 3
REMARK  Name = ../refined-set-2016/1erb/1erb_pocket.pdb
REMARK  226 active torsions:
REMARK  status: ('A' for Active; 'I' for Inactive)
REMARK    1  A    between atoms: _1  and  _3
REMARK    2  A    between atoms: _3  and  _4
REMARK    3  A    between atoms: _3  and  _6
REMARK    4  A    between atoms: _6  and  _7
REMARK    5  A    between atoms: _13  and  _15
REMARK    6  A    between atoms: _15  and  _16
REMARK    7  A    between atoms: _15  and  _18
REMARK    8  A    between atoms: _18  and  _19
REMARK    9  A    between atoms: _29  and  _31
REMARK   10  A    between atoms: _31  and  _32
REMARK   11  A    between atoms: _36  and  _37
REMARK   12  A    between atoms: _42  and  _44
REMARK   13  A    between atoms: _44  and  _45
REMARK   14  A    between atoms: _47  and  _49
REMARK   15  A    between atoms: _49  and  _50
REMARK   16  A    between atoms: _49  and  _52
REMARK   17  A    between atoms: _52  and  _53
REMARK   18  A    between atoms: _56  and  _58
REMARK   19  A    between atoms: _58  and  _59
REMARK   20  A    between atoms: _58  and  _61
REMARK   21  A    between atoms: _61  and  _62
REMARK   22  A    between atoms: _68  and  _70
REMARK   23  A    between atoms: _70  and  _71
REMARK   24  A    between atoms: _70  and  _73
REMARK   25  A    between atoms: _73  and  _74
REMARK   26  A    between atoms: _77  and  _79
REMARK   27  A    between atoms: _79  and  _80
REMARK   28  A    between atoms: _79  and  _82
REMARK   29  A    between atoms: _82  and  _83
REMARK   30  A    between atoms: _83  and  _84
REMARK   31  A    between atoms: _89  and  _91
REMARK   32  A    between atoms: _91  and  _92
REMARK   33  A    between atoms: _91  and  _94
REMARK   34  A    between atoms: _94  and  _95
REMARK   35  A    between atoms: _98  and  _100
REMARK   36  A    between atoms: _100  and  _101
REMARK   37  A    between atoms: _100  and  _103
REMARK   38  A    between atoms: _106  and  _108
REMARK   39  A    between atoms: _108  and  _109
REMARK   40  A    between atoms: _112  and  _114
REMARK   41  A    between atoms: _114  and  _115
REMARK   42  A    between atoms: _114  and  _117
REMARK   43  A    between atoms: _117  and  _118
REMARK   44  A    between atoms: _118  and  _119
REMARK   45  A    between atoms: _122  and  _124
REMARK   46  A    between atoms: _124  and  _125
REMARK   47  A    between atoms: _124  and  _127
REMARK   48  A    between atoms: _127  and  _128
REMARK   49  A    between atoms: _134  and  _136
REMARK   50  A    between atoms: _136  and  _137
REMARK   51  A    between atoms: _136  and  _139
REMARK   52  A    between atoms: _139  and  _140
REMARK   53  A    between atoms: _142  and  _144
REMARK   54  A    between atoms: _144  and  _145
REMARK   55  A    between atoms: _148  and  _150
REMARK   56  A    between atoms: _150  and  _151
REMARK   57  A    between atoms: _150  and  _153
REMARK   58  A    between atoms: _153  and  _154
REMARK   59  A    between atoms: _157  and  _159
REMARK   60  A    between atoms: _159  and  _160
REMARK   61  A    between atoms: _163  and  _165
REMARK   62  A    between atoms: _165  and  _166
REMARK   63  A    between atoms: _165  and  _168
REMARK   64  A    between atoms: _168  and  _169
REMARK   65  A    between atoms: _169  and  _170
REMARK   66  A    between atoms: _170  and  _171
REMARK   67  A    between atoms: _171  and  _172
REMARK   68  A    between atoms: _176  and  _178
REMARK   69  A    between atoms: _178  and  _179
REMARK   70  A    between atoms: _181  and  _183
REMARK   71  A    between atoms: _183  and  _184
REMARK   72  A    between atoms: _183  and  _186
REMARK   73  A    between atoms: _186  and  _187
REMARK   74  A    between atoms: _187  and  _188
REMARK   75  A    between atoms: _188  and  _189
REMARK   76  A    between atoms: _198  and  _200
REMARK   77  A    between atoms: _200  and  _201
REMARK   78  A    between atoms: _200  and  _203
REMARK   79  A    between atoms: _206  and  _208
REMARK   80  A    between atoms: _208  and  _209
REMARK   81  A    between atoms: _208  and  _211
REMARK   82  A    between atoms: _211  and  _212
REMARK   83  A    between atoms: _212  and  _213
REMARK   84  A    between atoms: _213  and  _214
REMARK   85  A    between atoms: _223  and  _225
REMARK   86  A    between atoms: _225  and  _226
REMARK   87  A    between atoms: _225  and  _228
REMARK   88  A    between atoms: _228  and  _229
REMARK   89  A    between atoms: _232  and  _234
REMARK   90  A    between atoms: _234  and  _235
REMARK   91  A    between atoms: _234  and  _237
REMARK   92  A    between atoms: _237  and  _238
REMARK   93  A    between atoms: _241  and  _243
REMARK   94  A    between atoms: _243  and  _244
REMARK   95  A    between atoms: _243  and  _246
REMARK   96  A    between atoms: _246  and  _247
REMARK   97  A    between atoms: _252  and  _254
REMARK   98  A    between atoms: _254  and  _255
REMARK   99  A    between atoms: _254  and  _257
REMARK  100  A    between atoms: _257  and  _258
REMARK  101  A    between atoms: _268  and  _270
REMARK  102  A    between atoms: _270  and  _271
REMARK  103  A    between atoms: _270  and  _273
REMARK  104  A    between atoms: _276  and  _278
REMARK  105  A    between atoms: _278  and  _279
REMARK  106  A    between atoms: _282  and  _284
REMARK  107  A    between atoms: _284  and  _285
REMARK  108  A    between atoms: _284  and  _287
REMARK  109  A    between atoms: _287  and  _288
REMARK  110  A    between atoms: _291  and  _293
REMARK  111  A    between atoms: _293  and  _294
REMARK  112  A    between atoms: _293  and  _296
REMARK  113  A    between atoms: _296  and  _297
REMARK  114  A    between atoms: _297  and  _298
REMARK  115  A    between atoms: _300  and  _302
REMARK  116  A    between atoms: _302  and  _303
REMARK  117  A    between atoms: _302  and  _305
REMARK  118  A    between atoms: _308  and  _310
REMARK  119  A    between atoms: _310  and  _311
REMARK  120  A    between atoms: _313  and  _315
REMARK  121  A    between atoms: _315  and  _316
REMARK  122  A    between atoms: _315  and  _318
REMARK  123  A    between atoms: _318  and  _319
REMARK  124  A    between atoms: _322  and  _324
REMARK  125  A    between atoms: _324  and  _325
REMARK  126  A    between atoms: _324  and  _327
REMARK  127  A    between atoms: _327  and  _328
REMARK  128  A    between atoms: _334  and  _336
REMARK  129  A    between atoms: _336  and  _337
REMARK  130  A    between atoms: _336  and  _339
REMARK  131  A    between atoms: _339  and  _340
REMARK  132  A    between atoms: _340  and  _341
REMARK  133  A    between atoms: _343  and  _345
REMARK  134  A    between atoms: _345  and  _346
REMARK  135  A    between atoms: _345  and  _348
REMARK  136  A    between atoms: _348  and  _349
REMARK  137  A    between atoms: _349  and  _350
REMARK  138  A    between atoms: _350  and  _351
REMARK  139  A    between atoms: _351  and  _352
REMARK  140  A    between atoms: _356  and  _358
REMARK  141  A    between atoms: _358  and  _359
REMARK  142  A    between atoms: _358  and  _361
REMARK  143  A    between atoms: _361  and  _362
REMARK  144  A    between atoms: _367  and  _368
REMARK  145  A    between atoms: _370  and  _372
REMARK  146  A    between atoms: _372  and  _373
REMARK  147  A    between atoms: _372  and  _375
REMARK  148  A    between atoms: _375  and  _376
REMARK  149  A    between atoms: _386  and  _388
REMARK  150  A    between atoms: _388  and  _389
REMARK  151  A    between atoms: _391  and  _393
REMARK  152  A    between atoms: _393  and  _394
REMARK  153  A    between atoms: _399  and  _400
REMARK  154  A    between atoms: _399  and  _402
REMARK  155  A    between atoms: _402  and  _403
REMARK  156  A    between atoms: _405  and  _407
REMARK  157  A    between atoms: _407  and  _408
REMARK  158  A    between atoms: _407  and  _410
REMARK  159  A    between atoms: _410  and  _411
REMARK  160  A    between atoms: _417  and  _419
REMARK  161  A    between atoms: _419  and  _420
REMARK  162  A    between atoms: _419  and  _422
REMARK  163  A    between atoms: _422  and  _423
REMARK  164  A    between atoms: _426  and  _428
REMARK  165  A    between atoms: _428  and  _429
REMARK  166  A    between atoms: _428  and  _431
REMARK  167  A    between atoms: _431  and  _432
REMARK  168  A    between atoms: _432  and  _433
REMARK  169  A    between atoms: _438  and  _440
REMARK  170  A    between atoms: _440  and  _441
REMARK  171  A    between atoms: _440  and  _443
REMARK  172  A    between atoms: _443  and  _444
REMARK  173  A    between atoms: _444  and  _445
REMARK  174  A    between atoms: _445  and  _446
REMARK  175  A    between atoms: _446  and  _447
REMARK  176  A    between atoms: _451  and  _453
REMARK  177  A    between atoms: _453  and  _454
REMARK  178  A    between atoms: _456  and  _458
REMARK  179  A    between atoms: _458  and  _459
REMARK  180  A    between atoms: _458  and  _461
REMARK  181  A    between atoms: _461  and  _462
REMARK  182  A    between atoms: _465  and  _467
REMARK  183  A    between atoms: _467  and  _468
REMARK  184  A    between atoms: _467  and  _470
REMARK  185  A    between atoms: _470  and  _471
REMARK  186  A    between atoms: _474  and  _476
REMARK  187  A    between atoms: _476  and  _477
REMARK  188  A    between atoms: _476  and  _479
REMARK  189  A    between atoms: _479  and  _480
REMARK  190  A    between atoms: _485  and  _487
REMARK  191  A    between atoms: _487  and  _488
REMARK  192  A    between atoms: _487  and  _490
REMARK  193  A    between atoms: _490  and  _491
REMARK  194  A    between atoms: _491  and  _492
REMARK  195  A    between atoms: _497  and  _499
REMARK  196  A    between atoms: _499  and  _500
REMARK  197  A    between atoms: _499  and  _502
REMARK  198  A    between atoms: _502  and  _503
REMARK  199  A    between atoms: _508  and  _509
REMARK  200  A    between atoms: _511  and  _513
REMARK  201  A    between atoms: _513  and  _514
REMARK  202  A    between atoms: _513  and  _516
REMARK  203  A    between atoms: _516  and  _517
REMARK  204  A    between atoms: _519  and  _521
REMARK  205  A    between atoms: _521  and  _522
REMARK  206  A    between atoms: _521  and  _524
REMARK  207  A    between atoms: _524  and  _525
REMARK  208  A    between atoms: _525  and  _526
REMARK  209  A    between atoms: _526  and  _527
REMARK  210  A    between atoms: _536  and  _538
REMARK  211  A    between atoms: _538  and  _539
REMARK  212  A    between atoms: _538  and  _541
REMARK  213  A    between atoms: _541  and  _542
REMARK  214  A    between atoms: _547  and  _548
REMARK  215  A    between atoms: _550  and  _552
REMARK  216  A    between atoms: _552  and  _553
REMARK  217  A    between atoms: _552  and  _555
REMARK  218  A    between atoms: _555  and  _556
REMARK  219  A    between atoms: _558  and  _560
REMARK  220  A    between atoms: _560  and  _561
REMARK  221  A    between atoms: _560  and  _563
REMARK  222  A    between atoms: _563  and  _564
REMARK  223  A    between atoms: _570  and  _572
REMARK  224  A    between atoms: _572  and  _573
REMARK  225  A    between atoms: _572  and  _575
REMARK  226  A    between atoms: _575  and  _576
REMARK                            x       y       z     vdW  Elec       q    Type
REMARK                         _______ _______ _______ _____ _____    ______ ____
ROOT
ATOM      1  CA  VAL A   4      34.689  15.002  42.507  0.00  0.00    +0.149 C 
ENDROOT
BRANCH   1   3
ATOM      2  C   MET A   3      36.053  16.698  43.598  0.00  0.00    +0.241 C 
ATOM      3  N   VAL A   4      35.421  15.531  43.634  0.00  0.00    -0.297 N 
ATOM      4  H   VAL A   4      35.454  14.974  44.512  0.00  0.00    +0.150 HD
ATOM      5  O   MET A   3      36.067  17.437  42.611  0.00  0.00    -0.273 OA
BRANCH   2   6
ATOM      6  CA  MET A   3      36.741  17.059  44.905  0.00  0.00    +0.149 C 
BRANCH   6   9
ATOM      7  C   ASP A   2      39.130  17.502  45.083  0.00  0.00    +0.241 C 
ATOM      8  O   ASP A   2      39.377  16.392  45.536  0.00  0.00    -0.273 OA
ATOM      9  N   MET A   3      37.905  17.916  44.755  0.00  0.00    -0.297 N 
ATOM     10  H   MET A   3      37.780  18.879  44.382  0.00  0.00    +0.150 HD
BRANCH   7  11
ATOM     11  CA  ASP A   2      40.296  18.453  44.926  0.00  0.00    +0.160 C 
BRANCH  11  13
ATOM     12  C   ALA A   1      40.554  19.833  46.897  0.00  0.00    +0.238 C 
ATOM     13  N   ASP A   2      40.685  18.648  46.312  0.00  0.00    -0.297 N 
ATOM     14  H   ASP A   2      41.071  17.849  46.854  0.00  0.00    +0.150 HD
ATOM     15  O   ALA A   1      40.131  20.821  46.305  0.00  0.00    -0.274 OA
BRANCH  12  16
ATOM     16  CA  ALA A   1      40.948  19.928  48.355  0.00  0.00    +0.145 C 
ATOM     17  CB  ALA A   1      39.662  19.755  49.145  0.00  0.00    +0.028 C 
BRANCH  16  18
ATOM     18  N   ALA A   1      41.576  21.195  48.691  0.00  0.00    -0.238 NA
ATOM     19  H   ALA A   1      41.007  21.997  49.028  0.00  0.00    +0.142 HD
ENDBRANCH  16  18
ENDBRANCH  12  16
ENDBRANCH  11  13
BRANCH  11  20
ATOM     20  CB  ASP A   2      41.337  17.764  44.033  0.00  0.00    +0.143 C 
BRANCH  20  21
ATOM     21  CG  ASP A   2      42.579  18.553  43.768  0.00  0.00    +0.367 C 
ATOM     22  OD2 ASP A   2      43.599  18.118  44.461  0.00  0.00    -0.246 OA
ATOM     23  OD1 ASP A   2      42.650  19.424  42.928  0.00  0.00    -0.246 OA
ENDBRANCH  20  21
ENDBRANCH  11  20
ENDBRANCH   7  11
ENDBRANCH   6   9
BRANCH   6  24
ATOM     24  CB  MET A   3      35.683  17.681  45.840  0.00  0.00    +0.041 C 
BRANCH  24  25
ATOM     25  CG  MET A   3      36.228  18.284  47.116  0.00  0.00    +0.060 C 
BRANCH  25  26
ATOM     26  SD  MET A   3      36.636  17.038  48.365  0.00  0.00    -0.139 S 
ATOM     27  CE  MET A   3      35.022  16.280  48.707  0.00  0.00    +0.069 C 
ENDBRANCH  25  26
ENDBRANCH  24  25
ENDBRANCH   6  24
ENDBRANCH   2   6
ENDBRANCH   1   3
BRANCH   1  28
ATOM     28  C   VAL A   4      33.283  14.629  42.914  0.00  0.00    +0.241 C 
ATOM     29  O   VAL A   4      33.044  14.040  43.969  0.00  0.00    -0.273 OA
ATOM     30  N   GLY A   5      32.339  14.968  42.056  0.00  0.00    -0.295 N 
ATOM     31  H   GLY A   5      32.587  15.457  41.173  0.00  0.00    +0.150 HD
BRANCH  30  32
ATOM     32  CA  GLY A   5      30.954  14.655  42.351  0.00  0.00    +0.176 C 
BRANCH  32  33
ATOM     33  C   GLY A   5      30.252  14.172  41.103  0.00  0.00    +0.243 C 
ATOM     34  N   THR A   6      29.400  13.168  41.271  0.00  0.00    -0.295 N 
ATOM     35  H   THR A   6      29.274  12.768  42.223  0.00  0.00    +0.150 HD
ATOM     36  O   GLY A   5      30.493  14.705  40.027  0.00  0.00    -0.273 OA
BRANCH  34  37
ATOM     37  CA  THR A   6      28.643  12.615  40.174  0.00  0.00    +0.176 C 
BRANCH  37  38
ATOM     38  C   THR A   6      27.189  12.846  40.538  0.00  0.00    +0.243 C 
ATOM     39  O   THR A   6      26.844  12.714  41.705  0.00  0.00    -0.273 OA
ATOM     40  N   PHE A   7      26.348  13.195  39.571  0.00  0.00    -0.298 N 
ATOM     41  H   PHE A   7      26.700  13.291  38.597  0.00  0.00    +0.150 HD
BRANCH  40  42
ATOM     42  CA  PHE A   7      24.940  13.445  39.853  0.00  0.00    +0.141 C 
BRANCH  42  43
ATOM     43  C   PHE A   7      23.974  12.468  39.204  0.00  0.00    +0.227 C 
ATOM     44  O   PHE A   7      24.142  12.095  38.051  0.00  0.00    -0.286 OA
ENDBRANCH  42  43
BRANCH  42  45
ATOM     45  CB  PHE A   7      24.551  14.857  39.385  0.00  0.00    +0.054 C 
BRANCH  45  46
ATOM     46  CG  PHE A   7      25.414  15.928  39.999  0.00  0.00    -0.020 A 
ATOM     47  CD2 PHE A   7      24.923  16.712  41.047  0.00  0.00    -0.004 A 
ATOM     48  CE2 PHE A   7      25.700  17.704  41.639  0.00  0.00    -0.000 A 
ATOM     49  CZ  PHE A   7      27.001  17.922  41.178  0.00  0.00    -0.000 A 
ATOM     50  CE1 PHE A   7      27.511  17.143  40.136  0.00  0.00    -0.000 A 
ATOM     51  CD1 PHE A   7      26.715  16.157  39.551  0.00  0.00    -0.004 A 
ENDBRANCH  45  46
ENDBRANCH  42  45
ENDBRANCH  40  42
ENDBRANCH  37  38
BRANCH  37  52
ATOM     52  CB  THR A   6      28.940  11.121  39.961  0.00  0.00    +0.137 C 
ATOM     53  CG2 THR A   6      30.264  10.973  39.227  0.00  0.00    +0.034 C 
BRANCH  52  54
ATOM     54  OG1 THR A   6      28.967  10.430  41.205  0.00  0.00    -0.382 OA
ATOM     55  HG1 THR A   6      28.088  10.521  41.651  0.00  0.00    +0.210 HD
ENDBRANCH  52  54
ENDBRANCH  37  52
ENDBRANCH  34  37
ENDBRANCH  32  33
ENDBRANCH  30  32
ENDBRANCH   1  28
BRANCH   1  56
ATOM     56  CB  VAL A   4      35.352  13.758  41.946  0.00  0.00    +0.027 C 
ATOM     57  CG2 VAL A   4      36.839  14.026  41.763  0.00  0.00    +0.002 C 
ATOM     58  CG1 VAL A   4      34.659  13.385  40.639  0.00  0.00    +0.002 C 
ENDBRANCH   1  56
TORSDOF 24
REMARK  Name = ../refined-set-2016/1erb/1erb_pocket.pdb
REMARK  226 active torsions:
REMARK  status: ('A' for Active; 'I' for Inactive)
REMARK    1  A    between atoms: _1  and  _3
REMARK    2  A    between atoms: _3  and  _4
REMARK    3  A    between atoms: _3  and  _6
REMARK    4  A    between atoms: _6  and  _7
REMARK    5  A    between atoms: _13  and  _15
REMARK    6  A    between atoms: _15  and  _16
REMARK    7  A    between atoms: _15  and  _18
REMARK    8  A    between atoms: _18  and  _19
REMARK    9  A    between atoms: _29  and  _31
REMARK   10  A    between atoms: _31  and  _32
REMARK   11  A    between atoms: _36  and  _37
REMARK   12  A    between atoms: _42  and  _44
REMARK   13  A    between atoms: _44  and  _45
REMARK   14  A    between atoms: _47  and  _49
REMARK   15  A    between atoms: _49  and  _50
REMARK   16  A    between atoms: _49  and  _52
REMARK   17  A    between atoms: _52  and  _53
REMARK   18  A    between atoms: _56  and  _58
REMARK   19  A    between atoms: _58  and  _59
REMARK   20  A    between atoms: _58  and  _61
REMARK   21  A    between atoms: _61  and  _62
REMARK   22  A    between atoms: _68  and  _70
REMARK   23  A    between atoms: _70  and  _71
REMARK   24  A    between atoms: _70  and  _73
REMARK   25  A    between atoms: _73  and  _74
REMARK   26  A    between atoms: _77  and  _79
REMARK   27  A    between atoms: _79  and  _80
REMARK   28  A    between atoms: _79  and  _82
REMARK   29  A    between atoms: _82  and  _83
REMARK   30  A    between atoms: _83  and  _84
REMARK   31  A    between atoms: _89  and  _91
REMARK   32  A    between atoms: _91  and  _92
REMARK   33  A    between atoms: _91  and  _94
REMARK   34  A    between atoms: _94  and  _95
REMARK   35  A    between atoms: _98  and  _100
REMARK   36  A    between atoms: _100  and  _101
REMARK   37  A    between atoms: _100  and  _103
REMARK   38  A    between atoms: _106  and  _108
REMARK   39  A    between atoms: _108  and  _109
REMARK   40  A    between atoms: _112  and  _114
REMARK   41  A    between atoms: _114  and  _115
REMARK   42  A    between atoms: _114  and  _117
REMARK   43  A    between atoms: _117  and  _118
REMARK   44  A    between atoms: _118  and  _119
REMARK   45  A    between atoms: _122  and  _124
REMARK   46  A    between atoms: _124  and  _125
REMARK   47  A    between atoms: _124  and  _127
REMARK   48  A    between atoms: _127  and  _128
REMARK   49  A    between atoms: _134  and  _136
REMARK   50  A    between atoms: _136  and  _137
REMARK   51  A    between atoms: _136  and  _139
REMARK   52  A    between atoms: _139  and  _140
REMARK   53  A    between atoms: _142  and  _144
REMARK   54  A    between atoms: _144  and  _145
REMARK   55  A    between atoms: _148  and  _150
REMARK   56  A    between atoms: _150  and  _151
REMARK   57  A    between atoms: _150  and  _153
REMARK   58  A    between atoms: _153  and  _154
REMARK   59  A    between atoms: _157  and  _159
REMARK   60  A    between atoms: _159  and  _160
REMARK   61  A    between atoms: _163  and  _165
REMARK   62  A    between atoms: _165  and  _166
REMARK   63  A    between atoms: _165  and  _168
REMARK   64  A    between atoms: _168  and  _169
REMARK   65  A    between atoms: _169  and  _170
REMARK   66  A    between atoms: _170  and  _171
REMARK   67  A    between atoms: _171  and  _172
REMARK   68  A    between atoms: _176  and  _178
REMARK   69  A    between atoms: _178  and  _179
REMARK   70  A    between atoms: _181  and  _183
REMARK   71  A    between atoms: _183  and  _184
REMARK   72  A    between atoms: _183  and  _186
REMARK   73  A    between atoms: _186  and  _187
REMARK   74  A    between atoms: _187  and  _188
REMARK   75  A    between atoms: _188  and  _189
REMARK   76  A    between atoms: _198  and  _200
REMARK   77  A    between atoms: _200  and  _201
REMARK   78  A    between atoms: _200  and  _203
REMARK   79  A    between atoms: _206  and  _208
REMARK   80  A    between atoms: _208  and  _209
REMARK   81  A    between atoms: _208  and  _211
REMARK   82  A    between atoms: _211  and  _212
REMARK   83  A    between atoms: _212  and  _213
REMARK   84  A    between atoms: _213  and  _214
REMARK   85  A    between atoms: _223  and  _225
REMARK   86  A    between atoms: _225  and  _226
REMARK   87  A    between atoms: _225  and  _228
REMARK   88  A    between atoms: _228  and  _229
REMARK   89  A    between atoms: _232  and  _234
REMARK   90  A    between atoms: _234  and  _235
REMARK   91  A    between atoms: _234  and  _237
REMARK   92  A    between atoms: _237  and  _238
REMARK   93  A    between atoms: _241  and  _243
REMARK   94  A    between atoms: _243  and  _244
REMARK   95  A    between atoms: _243  and  _246
REMARK   96  A    between atoms: _246  and  _247
REMARK   97  A    between atoms: _252  and  _254
REMARK   98  A    between atoms: _254  and  _255
REMARK   99  A    between atoms: _254  and  _257
REMARK  100  A    between atoms: _257  and  _258
REMARK  101  A    between atoms: _268  and  _270
REMARK  102  A    between atoms: _270  and  _271
REMARK  103  A    between atoms: _270  and  _273
REMARK  104  A    between atoms: _276  and  _278
REMARK  105  A    between atoms: _278  and  _279
REMARK  106  A    between atoms: _282  and  _284
REMARK  107  A    between atoms: _284  and  _285
REMARK  108  A    between atoms: _284  and  _287
REMARK  109  A    between atoms: _287  and  _288
REMARK  110  A    between atoms: _291  and  _293
REMARK  111  A    between atoms: _293  and  _294
REMARK  112  A    between atoms: _293  and  _296
REMARK  113  A    between atoms: _296  and  _297
REMARK  114  A    between atoms: _297  and  _298
REMARK  115  A    between atoms: _300  and  _302
REMARK  116  A    between atoms: _302  and  _303
REMARK  117  A    between atoms: _302  and  _305
REMARK  118  A    between atoms: _308  and  _310
REMARK  119  A    between atoms: _310  and  _311
REMARK  120  A    between atoms: _313  and  _315
REMARK  121  A    between atoms: _315  and  _316
REMARK  122  A    between atoms: _315  and  _318
REMARK  123  A    between atoms: _318  and  _319
REMARK  124  A    between atoms: _322  and  _324
REMARK  125  A    between atoms: _324  and  _325
REMARK  126  A    between atoms: _324  and  _327
REMARK  127  A    between atoms: _327  and  _328
REMARK  128  A    between atoms: _334  and  _336
REMARK  129  A    between atoms: _336  and  _337
REMARK  130  A    between atoms: _336  and  _339
REMARK  131  A    between atoms: _339  and  _340
REMARK  132  A    between atoms: _340  and  _341
REMARK  133  A    between atoms: _343  and  _345
REMARK  134  A    between atoms: _345  and  _346
REMARK  135  A    between atoms: _345  and  _348
REMARK  136  A    between atoms: _348  and  _349
REMARK  137  A    between atoms: _349  and  _350
REMARK  138  A    between atoms: _350  and  _351
REMARK  139  A    between atoms: _351  and  _352
REMARK  140  A    between atoms: _356  and  _358
REMARK  141  A    between atoms: _358  and  _359
REMARK  142  A    between atoms: _358  and  _361
REMARK  143  A    between atoms: _361  and  _362
REMARK  144  A    between atoms: _367  and  _368
REMARK  145  A    between atoms: _370  and  _372
REMARK  146  A    between atoms: _372  and  _373
REMARK  147  A    between atoms: _372  and  _375
REMARK  148  A    between atoms: _375  and  _376
REMARK  149  A    between atoms: _386  and  _388
REMARK  150  A    between atoms: _388  and  _389
REMARK  151  A    between atoms: _391  and  _393
REMARK  152  A    between atoms: _393  and  _394
REMARK  153  A    between atoms: _399  and  _400
REMARK  154  A    between atoms: _399  and  _402
REMARK  155  A    between atoms: _402  and  _403
REMARK  156  A    between atoms: _405  and  _407
REMARK  157  A    between atoms: _407  and  _408
REMARK  158  A    between atoms: _407  and  _410
REMARK  159  A    between atoms: _410  and  _411
REMARK  160  A    between atoms: _417  and  _419
REMARK  161  A    between atoms: _419  and  _420
REMARK  162  A    between atoms: _419  and  _422
REMARK  163  A    between atoms: _422  and  _423
REMARK  164  A    between atoms: _426  and  _428
REMARK  165  A    between atoms: _428  and  _429
REMARK  166  A    between atoms: _428  and  _431
REMARK  167  A    between atoms: _431  and  _432
REMARK  168  A    between atoms: _432  and  _433
REMARK  169  A    between atoms: _438  and  _440
REMARK  170  A    between atoms: _440  and  _441
REMARK  171  A    between atoms: _440  and  _443
REMARK  172  A    between atoms: _443  and  _444
REMARK  173  A    between atoms: _444  and  _445
REMARK  174  A    between atoms: _445  and  _446
REMARK  175  A    between atoms: _446  and  _447
REMARK  176  A    between atoms: _451  and  _453
REMARK  177  A    between atoms: _453  and  _454
REMARK  178  A    between atoms: _456  and  _458
REMARK  179  A    between atoms: _458  and  _459
REMARK  180  A    between atoms: _458  and  _461
REMARK  181  A    between atoms: _461  and  _462
REMARK  182  A    between atoms: _465  and  _467
REMARK  183  A    between atoms: _467  and  _468
REMARK  184  A    between atoms: _467  and  _470
REMARK  185  A    between atoms: _470  and  _471
REMARK  186  A    between atoms: _474  and  _476
REMARK  187  A    between atoms: _476  and  _477
REMARK  188  A    between atoms: _476  and  _479
REMARK  189  A    between atoms: _479  and  _480
REMARK  190  A    between atoms: _485  and  _487
REMARK  191  A    between atoms: _487  and  _488
REMARK  192  A    between atoms: _487  and  _490
REMARK  193  A    between atoms: _490  and  _491
REMARK  194  A    between atoms: _491  and  _492
REMARK  195  A    between atoms: _497  and  _499
REMARK  196  A    between atoms: _499  and  _500
REMARK  197  A    between atoms: _499  and  _502
REMARK  198  A    between atoms: _502  and  _503
REMARK  199  A    between atoms: _508  and  _509
REMARK  200  A    between atoms: _511  and  _513
REMARK  201  A    between atoms: _513  and  _514
REMARK  202  A    between atoms: _513  and  _516
REMARK  203  A    between atoms: _516  and  _517
REMARK  204  A    between atoms: _519  and  _521
REMARK  205  A    between atoms: _521  and  _522
REMARK  206  A    between atoms: _521  and  _524
REMARK  207  A    between atoms: _524  and  _525
REMARK  208  A    between atoms: _525  and  _526
REMARK  209  A    between atoms: _526  and  _527
REMARK  210  A    between atoms: _536  and  _538
REMARK  211  A    between atoms: _538  and  _539
REMARK  212  A    between atoms: _538  and  _541
REMARK  213  A    between atoms: _541  and  _542
REMARK  214  A    between atoms: _547  and  _548
REMARK  215  A    between atoms: _550  and  _552
REMARK  216  A    between atoms: _552  and  _553
REMARK  217  A    between atoms: _552  and  _555
REMARK  218  A    between atoms: _555  and  _556
REMARK  219  A    between atoms: _558  and  _560
REMARK  220  A    between atoms: _560  and  _561
REMARK  221  A    between atoms: _560  and  _563
REMARK  222  A    between atoms: _563  and  _564
REMARK  223  A    between atoms: _570  and  _572
REMARK  224  A    between atoms: _572  and  _573
REMARK  225  A    between atoms: _572  and  _575
REMARK  226  A    between atoms: _575  and  _576
REMARK                            x       y       z     vdW  Elec       q    Type
REMARK                         _______ _______ _______ _____ _____    ______ ____
ROOT
ATOM      1  CA  TYR A   3      31.157  12.936  46.149  0.00  0.00    +0.153 C 
ENDROOT
BRANCH   1   3
ATOM      2  C   LYS A   2      29.170  12.020  45.166  0.00  0.00    +0.241 C 
ATOM      3  N   TYR A   3      29.893  12.234  46.259  0.00  0.00    -0.297 N 
ATOM      4  H   TYR A   3      29.556  11.901  47.185  0.00  0.00    +0.150 HD
ATOM      5  O   LYS A   2      29.511  12.391  44.047  0.00  0.00    -0.273 OA
BRANCH   2   6
ATOM      6  CA  LYS A   2      27.853  11.308  45.319  0.00  0.00    +0.149 C 
BRANCH   6   9
ATOM      7  C   MET A   1      26.145  13.017  45.286  0.00  0.00    +0.238 C 
ATOM      8  O   MET A   1      26.205  13.160  46.502  0.00  0.00    -0.274 OA
ATOM      9  N   LYS A   2      26.901  12.152  44.626  0.00  0.00    -0.297 N 
ATOM     10  H   LYS A   2      26.809  12.078  43.593  0.00  0.00    +0.150 HD
BRANCH   7  11
ATOM     11  CA  MET A   1      25.207  13.847  44.438  0.00  0.00    +0.146 C 
BRANCH  11  12
ATOM     12  N   MET A   1      23.796  13.741  44.784  0.00  0.00    -0.238 NA
ATOM     13  H   MET A   1      23.461  14.098  45.702  0.00  0.00    +0.142 HD
ENDBRANCH  11  12
BRANCH  11  14
ATOM     14  CB  MET A   1      25.685  15.319  44.419  0.00  0.00    +0.038 C 
BRANCH  14  15
ATOM     15  CG  MET A   1      27.194  15.514  44.349  0.00  0.00    +0.060 C 
BRANCH  15  16
ATOM     16  SD  MET A   1      27.681  17.245  44.625  0.00  0.00    -0.139 S 
ATOM     17  CE  MET A   1      27.968  17.258  46.410  0.00  0.00    +0.069 C 
ENDBRANCH  15  16
ENDBRANCH  14  15
ENDBRANCH  11  14
ENDBRANCH   7  11
ENDBRANCH   6   9
BRANCH   6  18
ATOM     18  CB  LYS A   2      27.931   9.913  44.707  0.00  0.00    +0.029 C 
BRANCH  18  19
ATOM     19  CG  LYS A   2      28.812   8.961  45.504  0.00  0.00    +0.000 C 
BRANCH  19  20
ATOM     20  CD  LYS A   2      28.810   7.536  44.970  0.00  0.00    -0.024 C 
BRANCH  20  21
ATOM     21  CE  LYS A   2      29.760   7.336  43.804  0.00  0.00    -0.086 C 
BRANCH  21  22
ATOM     22  NZ  LYS A   2      29.669   5.997  43.208  0.00  0.00    +0.380 N 
ATOM     23  HZ1 LYS A   2      29.899   5.282  43.928  0.00  0.00    -0.089 HD
ATOM     24  HZ2 LYS A   2      28.703   5.840  42.858  0.00  0.00    -0.089 HD
ATOM     25  HZ3 LYS A   2      30.342   5.924  42.418  0.00  0.00    -0.089 HD
ENDBRANCH  21  22
ENDBRANCH  20  21
ENDBRANCH  19  20
ENDBRANCH  18  19
ENDBRANCH   6  18
ENDBRANCH   2   6
ENDBRANCH   1   3
BRANCH   1  26
ATOM     26  C   TYR A   3      32.271  12.317  46.977  0.00  0.00    +0.241 C 
ATOM     27  O   TYR A   3      32.026  11.653  47.975  0.00  0.00    -0.273 OA
ATOM     28  N   TRP A   4      33.507  12.544  46.535  0.00  0.00    -0.297 N 
ATOM     29  H   TRP A   4      33.619  13.126  45.680  0.00  0.00    +0.150 HD
BRANCH  28  30
ATOM     30  CA  TRP A   4      34.712  12.030  47.171  0.00  0.00    +0.153 C 
BRANCH  30  31
ATOM     31  C   TRP A   4      35.867  12.956  46.839  0.00  0.00    +0.241 C 
ATOM     32  N   GLY A   5      37.016  12.766  47.470  0.00  0.00    -0.296 N 
ATOM     33  H   GLY A   5      37.109  12.004  48.171  0.00  0.00    +0.150 HD
ATOM     34  O   TRP A   4      35.725  13.854  46.014  0.00  0.00    -0.273 OA
BRANCH  32  35
ATOM     35  CA  GLY A   5      38.141  13.628  47.176  0.00  0.00    +0.163 C 
BRANCH  35  36
ATOM     36  C   GLY A   5      39.257  12.842  46.512  0.00  0.00    +0.229 C 
ATOM     37  O   GLY A   5      39.257  11.623  46.579  0.00  0.00    -0.286 OA
ENDBRANCH  35  36
ENDBRANCH  32  35
ENDBRANCH  30  31
BRANCH  30  38
ATOM     38  CB  TRP A   4      35.007  10.559  46.754  0.00  0.00    +0.057 C 
BRANCH  38  39
ATOM     39  CG  TRP A   4      35.207  10.373  45.274  0.00  0.00    -0.002 A 
ATOM     40  CD1 TRP A   4      36.398  10.343  44.622  0.00  0.00    +0.068 A 
ATOM     41  NE1 TRP A   4      36.201  10.168  43.273  0.00  0.00    -0.352 N 
ATOM     42  CE2 TRP A   4      34.853  10.086  43.024  0.00  0.00    +0.056 A 
ATOM     43  CZ2 TRP A   4      34.143   9.930  41.830  0.00  0.00    +0.017 A 
ATOM     44  CH2 TRP A   4      32.766   9.880  41.884  0.00  0.00    +0.001 A 
ATOM     45  CZ3 TRP A   4      32.091   9.989  43.104  0.00  0.00    +0.000 A 
ATOM     46  CE3 TRP A   4      32.796  10.160  44.287  0.00  0.00    +0.001 A 
ATOM     47  HE1 TRP A   4      36.952  10.107  42.556  0.00  0.00    +0.166 HD
ATOM     48  CD2 TRP A   4      34.190  10.203  44.266  0.00  0.00    +0.013 A 
ENDBRANCH  38  39
ENDBRANCH  30  38
ENDBRANCH  28  30
ENDBRANCH   1  26
BRANCH   1  49
ATOM     49  CB  TYR A   3      30.967  14.412  46.508  0.00  0.00    +0.055 C 
BRANCH  49  50
ATOM     50  CG  TYR A   3      30.599  14.514  47.963  0.00  0.00    -0.020 A 
ATOM     51  CD2 TYR A   3      31.584  14.751  48.912  0.00  0.00    -0.001 A 
ATOM     52  CE2 TYR A   3      31.276  14.840  50.271  0.00  0.00    +0.036 A 
ATOM     53  CZ  TYR A   3      29.954  14.679  50.667  0.00  0.00    +0.134 A 
ATOM     54  CE1 TYR A   3      28.948  14.437  49.728  0.00  0.00    +0.036 A 
ATOM     55  CD1 TYR A   3      29.277  14.353  48.378  0.00  0.00    -0.001 A 
BRANCH  53  56
ATOM     56  OH  TYR A   3      29.634  14.768  52.000  0.00  0.00    -0.506 OA
ATOM     57  HH  TYR A   3      28.660  14.631  52.114  0.00  0.00    +0.292 HD
ENDBRANCH  53  56
ENDBRANCH  49  50
ENDBRANCH   1  49
TORSDOF 23
REMARK  Name = ../refined-set-2016/1erb/1erb_pocket.pdb
REMARK  226 active torsions:
REMARK  status: ('A' for Active; 'I' for Inactive)
REMARK    1  A    between atoms: _1  and  _3
REMARK    2  A    between atoms: _3  and  _4
REMARK    3  A    between atoms: _3  and  _6
REMARK    4  A    between atoms: _6  and  _7
REMARK    5  A    between atoms: _13  and  _15
REMARK    6  A    between atoms: _15  and  _16
REMARK    7  A    between atoms: _15  and  _18
REMARK    8  A    between atoms: _18  and  _19
REMARK    9  A    between atoms: _29  and  _31
REMARK   10  A    between atoms: _31  and  _32
REMARK   11  A    between atoms: _36  and  _37
REMARK   12  A    between atoms: _42  and  _44
REMARK   13  A    between atoms: _44  and  _45
REMARK   14  A    between atoms: _47  and  _49
REMARK   15  A    between atoms: _49  and  _50
REMARK   16  A    between atoms: _49  and  _52
REMARK   17  A    between atoms: _52  and  _53
REMARK   18  A    between atoms: _56  and  _58
REMARK   19  A    between atoms: _58  and  _59
REMARK   20  A    between atoms: _58  and  _61
REMARK   21  A    between atoms: _61  and  _62
REMARK   22  A    between atoms: _68  and  _70
REMARK   23  A    between atoms: _70  and  _71
REMARK   24  A    between atoms: _70  and  _73
REMARK   25  A    between atoms: _73  and  _74
REMARK   26  A    between atoms: _77  and  _79
REMARK   27  A    between atoms: _79  and  _80
REMARK   28  A    between atoms: _79  and  _82
REMARK   29  A    between atoms: _82  and  _83
REMARK   30  A    between atoms: _83  and  _84
REMARK   31  A    between atoms: _89  and  _91
REMARK   32  A    between atoms: _91  and  _92
REMARK   33  A    between atoms: _91  and  _94
REMARK   34  A    between atoms: _94  and  _95
REMARK   35  A    between atoms: _98  and  _100
REMARK   36  A    between atoms: _100  and  _101
REMARK   37  A    between atoms: _100  and  _103
REMARK   38  A    between atoms: _106  and  _108
REMARK   39  A    between atoms: _108  and  _109
REMARK   40  A    between atoms: _112  and  _114
REMARK   41  A    between atoms: _114  and  _115
REMARK   42  A    between atoms: _114  and  _117
REMARK   43  A    between atoms: _117  and  _118
REMARK   44  A    between atoms: _118  and  _119
REMARK   45  A    between atoms: _122  and  _124
REMARK   46  A    between atoms: _124  and  _125
REMARK   47  A    between atoms: _124  and  _127
REMARK   48  A    between atoms: _127  and  _128
REMARK   49  A    between atoms: _134  and  _136
REMARK   50  A    between atoms: _136  and  _137
REMARK   51  A    between atoms: _136  and  _139
REMARK   52  A    between atoms: _139  and  _140
REMARK   53  A    between atoms: _142  and  _144
REMARK   54  A    between atoms: _144  and  _145
REMARK   55  A    between atoms: _148  and  _150
REMARK   56  A    between atoms: _150  and  _151
REMARK   57  A    between atoms: _150  and  _153
REMARK   58  A    between atoms: _153  and  _154
REMARK   59  A    between atoms: _157  and  _159
REMARK   60  A    between atoms: _159  and  _160
REMARK   61  A    between atoms: _163  and  _165
REMARK   62  A    between atoms: _165  and  _166
REMARK   63  A    between atoms: _165  and  _168
REMARK   64  A    between atoms: _168  and  _169
REMARK   65  A    between atoms: _169  and  _170
REMARK   66  A    between atoms: _170  and  _171
REMARK   67  A    between atoms: _171  and  _172
REMARK   68  A    between atoms: _176  and  _178
REMARK   69  A    between atoms: _178  and  _179
REMARK   70  A    between atoms: _181  and  _183
REMARK   71  A    between atoms: _183  and  _184
REMARK   72  A    between atoms: _183  and  _186
REMARK   73  A    between atoms: _186  and  _187
REMARK   74  A    between atoms: _187  and  _188
REMARK   75  A    between atoms: _188  and  _189
REMARK   76  A    between atoms: _198  and  _200
REMARK   77  A    between atoms: _200  and  _201
REMARK   78  A    between atoms: _200  and  _203
REMARK   79  A    between atoms: _206  and  _208
REMARK   80  A    between atoms: _208  and  _209
REMARK   81  A    between atoms: _208  and  _211
REMARK   82  A    between atoms: _211  and  _212
REMARK   83  A    between atoms: _212  and  _213
REMARK   84  A    between atoms: _213  and  _214
REMARK   85  A    between atoms: _223  and  _225
REMARK   86  A    between atoms: _225  and  _226
REMARK   87  A    between atoms: _225  and  _228
REMARK   88  A    between atoms: _228  and  _229
REMARK   89  A    between atoms: _232  and  _234
REMARK   90  A    between atoms: _234  and  _235
REMARK   91  A    between atoms: _234  and  _237
REMARK   92  A    between atoms: _237  and  _238
REMARK   93  A    between atoms: _241  and  _243
REMARK   94  A    between atoms: _243  and  _244
REMARK   95  A    between atoms: _243  and  _246
REMARK   96  A    between atoms: _246  and  _247
REMARK   97  A    between atoms: _252  and  _254
REMARK   98  A    between atoms: _254  and  _255
REMARK   99  A    between atoms: _254  and  _257
REMARK  100  A    between atoms: _257  and  _258
REMARK  101  A    between atoms: _268  and  _270
REMARK  102  A    between atoms: _270  and  _271
REMARK  103  A    between atoms: _270  and  _273
REMARK  104  A    between atoms: _276  and  _278
REMARK  105  A    between atoms: _278  and  _279
REMARK  106  A    between atoms: _282  and  _284
REMARK  107  A    between atoms: _284  and  _285
REMARK  108  A    between atoms: _284  and  _287
REMARK  109  A    between atoms: _287  and  _288
REMARK  110  A    between atoms: _291  and  _293
REMARK  111  A    between atoms: _293  and  _294
REMARK  112  A    between atoms: _293  and  _296
REMARK  113  A    between atoms: _296  and  _297
REMARK  114  A    between atoms: _297  and  _298
REMARK  115  A    between atoms: _300  and  _302
REMARK  116  A    between atoms: _302  and  _303
REMARK  117  A    between atoms: _302  and  _305
REMARK  118  A    between atoms: _308  and  _310
REMARK  119  A    between atoms: _310  and  _311
REMARK  120  A    between atoms: _313  and  _315
REMARK  121  A    between atoms: _315  and  _316
REMARK  122  A    between atoms: _315  and  _318
REMARK  123  A    between atoms: _318  and  _319
REMARK  124  A    between atoms: _322  and  _324
REMARK  125  A    between atoms: _324  and  _325
REMARK  126  A    between atoms: _324  and  _327
REMARK  127  A    between atoms: _327  and  _328
REMARK  128  A    between atoms: _334  and  _336
REMARK  129  A    between atoms: _336  and  _337
REMARK  130  A    between atoms: _336  and  _339
REMARK  131  A    between atoms: _339  and  _340
REMARK  132  A    between atoms: _340  and  _341
REMARK  133  A    between atoms: _343  and  _345
REMARK  134  A    between atoms: _345  and  _346
REMARK  135  A    between atoms: _345  and  _348
REMARK  136  A    between atoms: _348  and  _349
REMARK  137  A    between atoms: _349  and  _350
REMARK  138  A    between atoms: _350  and  _351
REMARK  139  A    between atoms: _351  and  _352
REMARK  140  A    between atoms: _356  and  _358
REMARK  141  A    between atoms: _358  and  _359
REMARK  142  A    between atoms: _358  and  _361
REMARK  143  A    between atoms: _361  and  _362
REMARK  144  A    between atoms: _367  and  _368
REMARK  145  A    between atoms: _370  and  _372
REMARK  146  A    between atoms: _372  and  _373
REMARK  147  A    between atoms: _372  and  _375
REMARK  148  A    between atoms: _375  and  _376
REMARK  149  A    between atoms: _386  and  _388
REMARK  150  A    between atoms: _388  and  _389
REMARK  151  A    between atoms: _391  and  _393
REMARK  152  A    between atoms: _393  and  _394
REMARK  153  A    between atoms: _399  and  _400
REMARK  154  A    between atoms: _399  and  _402
REMARK  155  A    between atoms: _402  and  _403
REMARK  156  A    between atoms: _405  and  _407
REMARK  157  A    between atoms: _407  and  _408
REMARK  158  A    between atoms: _407  and  _410
REMARK  159  A    between atoms: _410  and  _411
REMARK  160  A    between atoms: _417  and  _419
REMARK  161  A    between atoms: _419  and  _420
REMARK  162  A    between atoms: _419  and  _422
REMARK  163  A    between atoms: _422  and  _423
REMARK  164  A    between atoms: _426  and  _428
REMARK  165  A    between atoms: _428  and  _429
REMARK  166  A    between atoms: _428  and  _431
REMARK  167  A    between atoms: _431  and  _432
REMARK  168  A    between atoms: _432  and  _433
REMARK  169  A    between atoms: _438  and  _440
REMARK  170  A    between atoms: _440  and  _441
REMARK  171  A    between atoms: _440  and  _443
REMARK  172  A    between atoms: _443  and  _444
REMARK  173  A    between atoms: _444  and  _445
REMARK  174  A    between atoms: _445  and  _446
REMARK  175  A    between atoms: _446  and  _447
REMARK  176  A    between atoms: _451  and  _453
REMARK  177  A    between atoms: _453  and  _454
REMARK  178  A    between atoms: _456  and  _458
REMARK  179  A    between atoms: _458  and  _459
REMARK  180  A    between atoms: _458  and  _461
REMARK  181  A    between atoms: _461  and  _462
REMARK  182  A    between atoms: _465  and  _467
REMARK  183  A    between atoms: _467  and  _468
REMARK  184  A    between atoms: _467  and  _470
REMARK  185  A    between atoms: _470  and  _471
REMARK  186  A    between atoms: _474  and  _476
REMARK  187  A    between atoms: _476  and  _477
REMARK  188  A    between atoms: _476  and  _479
REMARK  189  A    between atoms: _479  and  _480
REMARK  190  A    between atoms: _485  and  _487
REMARK  191  A    between atoms: _487  and  _488
REMARK  192  A    between atoms: _487  and  _490
REMARK  193  A    between atoms: _490  and  _491
REMARK  194  A    between atoms: _491  and  _492
REMARK  195  A    between atoms: _497  and  _499
REMARK  196  A    between atoms: _499  and  _500
REMARK  197  A    between atoms: _499  and  _502
REMARK  198  A    between atoms: _502  and  _503
REMARK  199  A    between atoms: _508  and  _509
REMARK  200  A    between atoms: _511  and  _513
REMARK  201  A    between atoms: _513  and  _514
REMARK  202  A    between atoms: _513  and  _516
REMARK  203  A    between atoms: _516  and  _517
REMARK  204  A    between atoms: _519  and  _521
REMARK  205  A    between atoms: _521  and  _522
REMARK  206  A    between atoms: _521  and  _524
REMARK  207  A    between atoms: _524  and  _525
REMARK  208  A    between atoms: _525  and  _526
REMARK  209  A    between atoms: _526  and  _527
REMARK  210  A    between atoms: _536  and  _538
REMARK  211  A    between atoms: _538  and  _539
REMARK  212  A    between atoms: _538  and  _541
REMARK  213  A    between atoms: _541  and  _542
REMARK  214  A    between atoms: _547  and  _548
REMARK  215  A    between atoms: _550  and  _552
REMARK  216  A    between atoms: _552  and  _553
REMARK  217  A    between atoms: _552  and  _555
REMARK  218  A    between atoms: _555  and  _556
REMARK  219  A    between atoms: _558  and  _560
REMARK  220  A    between atoms: _560  and  _561
REMARK  221  A    between atoms: _560  and  _563
REMARK  222  A    between atoms: _563  and  _564
REMARK  223  A    between atoms: _570  and  _572
REMARK  224  A    between atoms: _572  and  _573
REMARK  225  A    between atoms: _572  and  _575
REMARK  226  A    between atoms: _575  and  _576
REMARK                            x       y       z     vdW  Elec       q    Type
REMARK                         _______ _______ _______ _____ _____    ______ ____
ROOT
ATOM      1  CA  LEU A   4      38.765  14.210  52.314  0.00  0.00    +0.149 C 
ENDROOT
BRANCH   1   4
ATOM      2  C   PHE A   3      40.171  12.842  53.716  0.00  0.00    +0.241 C 
ATOM      3  O   PHE A   3      39.566  13.210  54.722  0.00  0.00    -0.273 OA
ATOM      4  N   LEU A   4      39.859  13.279  52.497  0.00  0.00    -0.297 N 
ATOM      5  H   LEU A   4      40.403  12.950  51.674  0.00  0.00    +0.150 HD
BRANCH   2   6
ATOM      6  CA  PHE A   3      41.326  11.852  53.838  0.00  0.00    +0.153 C 
BRANCH   6   9
ATOM      7  C   SER A   2      41.132  10.216  52.062  0.00  0.00    +0.258 C 
ATOM      8  O   SER A   2      40.201   9.641  52.629  0.00  0.00    -0.269 OA
ATOM      9  N   PHE A   3      41.733  11.286  52.568  0.00  0.00    -0.294 N 
ATOM     10  H   PHE A   3      42.513  11.728  52.041  0.00  0.00    +0.150 HD
BRANCH   7  13
ATOM     11  C   ALA A   1      41.961  11.785  49.510  0.00  0.00    +0.242 C 
ATOM     12  N   SER A   2      42.458  10.632  49.933  0.00  0.00    -0.281 N 
ATOM     13  CA  SER A   2      41.646   9.725  50.719  0.00  0.00    +0.111 C 
ATOM     14  H   SER A   2      43.438  10.376  49.699  0.00  0.00    +0.155 HD
ATOM     15  O   ALA A   1      40.812  12.134  49.772  0.00  0.00    -0.273 OA
BRANCH  11  16
ATOM     16  CA  ALA A   1      42.879  12.663  48.673  0.00  0.00    +0.145 C 
ATOM     17  CB  ALA A   1      43.308  13.916  49.412  0.00  0.00    +0.028 C 
BRANCH  16  18
ATOM     18  N   ALA A   1      42.140  12.998  47.469  0.00  0.00    -0.238 NA
ATOM     19  H   ALA A   1      41.574  13.870  47.462  0.00  0.00    +0.142 HD
ENDBRANCH  16  18
ENDBRANCH  11  16
BRANCH  13  20
ATOM     20  CB  SER A   2      42.046   8.260  50.645  0.00  0.00    +0.183 C 
BRANCH  20  21
ATOM     21  OG  SER A   2      43.078   7.979  51.569  0.00  0.00    -0.376 OA
ATOM     22  H   SER A   2      43.868   8.539  51.360  0.00  0.00    +0.211 HD
ENDBRANCH  20  21
ENDBRANCH  13  20
ENDBRANCH   7  13
ENDBRANCH   6   9
BRANCH   6  23
ATOM     23  CB  PHE A   3      42.486  12.446  54.653  0.00  0.00    +0.055 C 
BRANCH  23  24
ATOM     24  CG  PHE A   3      43.269  13.512  53.930  0.00  0.00    -0.020 A 
ATOM     25  CD2 PHE A   3      42.859  14.842  53.971  0.00  0.00    -0.004 A 
ATOM     26  CE2 PHE A   3      43.582  15.829  53.300  0.00  0.00    -0.000 A 
ATOM     27  CZ  PHE A   3      44.735  15.480  52.586  0.00  0.00    -0.000 A 
ATOM     28  CE1 PHE A   3      45.161  14.156  52.538  0.00  0.00    -0.000 A 
ATOM     29  CD1 PHE A   3      44.422  13.183  53.212  0.00  0.00    -0.004 A 
ENDBRANCH  23  24
ENDBRANCH   6  23
ENDBRANCH   2   6
ENDBRANCH   1   4
BRANCH   1  30
ATOM     30  C   LEU A   4      37.449  13.476  52.462  0.00  0.00    +0.241 C 
ATOM     31  N   GLN A   5      36.456  14.201  52.942  0.00  0.00    -0.297 N 
ATOM     32  H   GLN A   5      36.628  15.201  53.169  0.00  0.00    +0.150 HD
ATOM     33  O   LEU A   4      37.316  12.293  52.158  0.00  0.00    -0.273 OA
BRANCH  31  34
ATOM     34  CA  GLN A   5      35.133  13.650  53.163  0.00  0.00    +0.149 C 
BRANCH  34  35
ATOM     35  C   GLN A   5      34.483  13.032  51.927  0.00  0.00    +0.241 C 
ATOM     36  N   LYS A   6      33.678  11.995  52.132  0.00  0.00    -0.297 N 
ATOM     37  H   LYS A   6      33.560  11.661  53.110  0.00  0.00    +0.150 HD
ATOM     38  O   GLN A   5      34.702  13.481  50.817  0.00  0.00    -0.273 OA
BRANCH  36  39
ATOM     39  CA  LYS A   6      32.954  11.297  51.094  0.00  0.00    +0.149 C 
BRANCH  39  40
ATOM     40  C   LYS A   6      31.502  11.279  51.536  0.00  0.00    +0.241 C 
ATOM     41  O   LYS A   6      31.217  11.292  52.726  0.00  0.00    -0.273 OA
ATOM     42  N   GLY A   7      30.566  11.241  50.610  0.00  0.00    -0.296 N 
ATOM     43  H   GLY A   7      30.799  11.222  49.597  0.00  0.00    +0.150 HD
BRANCH  42  44
ATOM     44  CA  GLY A   7      29.202  11.227  51.074  0.00  0.00    +0.163 C 
BRANCH  44  45
ATOM     45  C   GLY A   7      28.260  11.239  49.907  0.00  0.00    +0.229 C 
ATOM     46  O   GLY A   7      28.675  11.016  48.774  0.00  0.00    -0.286 OA
ENDBRANCH  44  45
ENDBRANCH  42  44
ENDBRANCH  39  40
BRANCH  39  47
ATOM     47  CB  LYS A   6      33.388   9.849  50.910  0.00  0.00    +0.029 C 
BRANCH  47  48
ATOM     48  CG  LYS A   6      34.885   9.623  50.975  0.00  0.00    +0.000 C 
BRANCH  48  49
ATOM     49  CD  LYS A   6      35.245   8.183  51.307  0.00  0.00    -0.024 C 
BRANCH  49  50
ATOM     50  CE  LYS A   6      36.080   7.505  50.234  0.00  0.00    -0.086 C 
BRANCH  50  51
ATOM     51  NZ  LYS A   6      35.977   6.042  50.309  0.00  0.00    +0.380 N 
ATOM     52  HZ1 LYS A   6      36.313   5.719  51.239  0.00  0.00    -0.089 HD
ATOM     53  HZ2 LYS A   6      34.985   5.758  50.180  0.00  0.00    -0.089 HD
ATOM     54  HZ3 LYS A   6      36.560   5.616  49.561  0.00  0.00    -0.089 HD
ENDBRANCH  50  51
ENDBRANCH  49  50
ENDBRANCH  48  49
ENDBRANCH  47  48
ENDBRANCH  39  47
ENDBRANCH  36  39
ENDBRANCH  34  35
BRANCH  34  55
ATOM     55  CB  GLN A   5      34.254  14.757  53.792  0.00  0.00    +0.039 C 
BRANCH  55  56
ATOM     56  CG  GLN A   5      32.804  14.389  54.164  0.00  0.00    +0.087 C 
BRANCH  56  57
ATOM     57  CD  GLN A   5      32.031  15.615  54.638  0.00  0.00    +0.219 C 
ATOM     58  OE1 GLN A   5      32.158  15.989  55.806  0.00  0.00    -0.275 OA
ATOM     59  NE2 GLN A   5      31.321  16.341  53.776  0.00  0.00    -0.329 N 
ATOM     60 HE21 GLN A   5      30.872  17.226  54.088  0.00  0.00    +0.145 HD
ATOM     61 HE22 GLN A   5      31.216  16.023  52.791  0.00  0.00    +0.145 HD
ENDBRANCH  56  57
ENDBRANCH  55  56
ENDBRANCH  34  55
ENDBRANCH  31  34
ENDBRANCH   1  30
BRANCH   1  62
ATOM     62  CB  LEU A   4      38.805  14.901  50.951  0.00  0.00    +0.029 C 
BRANCH  62  63
ATOM     63  CG  LEU A   4      40.127  15.596  50.720  0.00  0.00    +0.002 C 
ATOM     64  CD2 LEU A   4      40.190  16.820  51.628  0.00  0.00    +0.000 C 
ATOM     65  CD1 LEU A   4      40.186  15.994  49.251  0.00  0.00    +0.000 C 
ENDBRANCH  62  63
ENDBRANCH   1  62
TORSDOF 27
REMARK  Name = ../refined-set-2016/1erb/1erb_pocket.pdb
REMARK  226 active torsions:
REMARK  status: ('A' for Active; 'I' for Inactive)
REMARK    1  A    between atoms: _1  and  _3
REMARK    2  A    between atoms: _3  and  _4
REMARK    3  A    between atoms: _3  and  _6
REMARK    4  A    between atoms: _6  and  _7
REMARK    5  A    between atoms: _13  and  _15
REMARK    6  A    between atoms: _15  and  _16
REMARK    7  A    between atoms: _15  and  _18
REMARK    8  A    between atoms: _18  and  _19
REMARK    9  A    between atoms: _29  and  _31
REMARK   10  A    between atoms: _31  and  _32
REMARK   11  A    between atoms: _36  and  _37
REMARK   12  A    between atoms: _42  and  _44
REMARK   13  A    between atoms: _44  and  _45
REMARK   14  A    between atoms: _47  and  _49
REMARK   15  A    between atoms: _49  and  _50
REMARK   16  A    between atoms: _49  and  _52
REMARK   17  A    between atoms: _52  and  _53
REMARK   18  A    between atoms: _56  and  _58
REMARK   19  A    between atoms: _58  and  _59
REMARK   20  A    between atoms: _58  and  _61
REMARK   21  A    between atoms: _61  and  _62
REMARK   22  A    between atoms: _68  and  _70
REMARK   23  A    between atoms: _70  and  _71
REMARK   24  A    between atoms: _70  and  _73
REMARK   25  A    between atoms: _73  and  _74
REMARK   26  A    between atoms: _77  and  _79
REMARK   27  A    between atoms: _79  and  _80
REMARK   28  A    between atoms: _79  and  _82
REMARK   29  A    between atoms: _82  and  _83
REMARK   30  A    between atoms: _83  and  _84
REMARK   31  A    between atoms: _89  and  _91
REMARK   32  A    between atoms: _91  and  _92
REMARK   33  A    between atoms: _91  and  _94
REMARK   34  A    between atoms: _94  and  _95
REMARK   35  A    between atoms: _98  and  _100
REMARK   36  A    between atoms: _100  and  _101
REMARK   37  A    between atoms: _100  and  _103
REMARK   38  A    between atoms: _106  and  _108
REMARK   39  A    between atoms: _108  and  _109
REMARK   40  A    between atoms: _112  and  _114
REMARK   41  A    between atoms: _114  and  _115
REMARK   42  A    between atoms: _114  and  _117
REMARK   43  A    between atoms: _117  and  _118
REMARK   44  A    between atoms: _118  and  _119
REMARK   45  A    between atoms: _122  and  _124
REMARK   46  A    between atoms: _124  and  _125
REMARK   47  A    between atoms: _124  and  _127
REMARK   48  A    between atoms: _127  and  _128
REMARK   49  A    between atoms: _134  and  _136
REMARK   50  A    between atoms: _136  and  _137
REMARK   51  A    between atoms: _136  and  _139
REMARK   52  A    between atoms: _139  and  _140
REMARK   53  A    between atoms: _142  and  _144
REMARK   54  A    between atoms: _144  and  _145
REMARK   55  A    between atoms: _148  and  _150
REMARK   56  A    between atoms: _150  and  _151
REMARK   57  A    between atoms: _150  and  _153
REMARK   58  A    between atoms: _153  and  _154
REMARK   59  A    between atoms: _157  and  _159
REMARK   60  A    between atoms: _159  and  _160
REMARK   61  A    between atoms: _163  and  _165
REMARK   62  A    between atoms: _165  and  _166
REMARK   63  A    between atoms: _165  and  _168
REMARK   64  A    between atoms: _168  and  _169
REMARK   65  A    between atoms: _169  and  _170
REMARK   66  A    between atoms: _170  and  _171
REMARK   67  A    between atoms: _171  and  _172
REMARK   68  A    between atoms: _176  and  _178
REMARK   69  A    between atoms: _178  and  _179
REMARK   70  A    between atoms: _181  and  _183
REMARK   71  A    between atoms: _183  and  _184
REMARK   72  A    between atoms: _183  and  _186
REMARK   73  A    between atoms: _186  and  _187
REMARK   74  A    between atoms: _187  and  _188
REMARK   75  A    between atoms: _188  and  _189
REMARK   76  A    between atoms: _198  and  _200
REMARK   77  A    between atoms: _200  and  _201
REMARK   78  A    between atoms: _200  and  _203
REMARK   79  A    between atoms: _206  and  _208
REMARK   80  A    between atoms: _208  and  _209
REMARK   81  A    between atoms: _208  and  _211
REMARK   82  A    between atoms: _211  and  _212
REMARK   83  A    between atoms: _212  and  _213
REMARK   84  A    between atoms: _213  and  _214
REMARK   85  A    between atoms: _223  and  _225
REMARK   86  A    between atoms: _225  and  _226
REMARK   87  A    between atoms: _225  and  _228
REMARK   88  A    between atoms: _228  and  _229
REMARK   89  A    between atoms: _232  and  _234
REMARK   90  A    between atoms: _234  and  _235
REMARK   91  A    between atoms: _234  and  _237
REMARK   92  A    between atoms: _237  and  _238
REMARK   93  A    between atoms: _241  and  _243
REMARK   94  A    between atoms: _243  and  _244
REMARK   95  A    between atoms: _243  and  _246
REMARK   96  A    between atoms: _246  and  _247
REMARK   97  A    between atoms: _252  and  _254
REMARK   98  A    between atoms: _254  and  _255
REMARK   99  A    between atoms: _254  and  _257
REMARK  100  A    between atoms: _257  and  _258
REMARK  101  A    between atoms: _268  and  _270
REMARK  102  A    between atoms: _270  and  _271
REMARK  103  A    between atoms: _270  and  _273
REMARK  104  A    between atoms: _276  and  _278
REMARK  105  A    between atoms: _278  and  _279
REMARK  106  A    between atoms: _282  and  _284
REMARK  107  A    between atoms: _284  and  _285
REMARK  108  A    between atoms: _284  and  _287
REMARK  109  A    between atoms: _287  and  _288
REMARK  110  A    between atoms: _291  and  _293
REMARK  111  A    between atoms: _293  and  _294
REMARK  112  A    between atoms: _293  and  _296
REMARK  113  A    between atoms: _296  and  _297
REMARK  114  A    between atoms: _297  and  _298
REMARK  115  A    between atoms: _300  and  _302
REMARK  116  A    between atoms: _302  and  _303
REMARK  117  A    between atoms: _302  and  _305
REMARK  118  A    between atoms: _308  and  _310
REMARK  119  A    between atoms: _310  and  _311
REMARK  120  A    between atoms: _313  and  _315
REMARK  121  A    between atoms: _315  and  _316
REMARK  122  A    between atoms: _315  and  _318
REMARK  123  A    between atoms: _318  and  _319
REMARK  124  A    between atoms: _322  and  _324
REMARK  125  A    between atoms: _324  and  _325
REMARK  126  A    between atoms: _324  and  _327
REMARK  127  A    between atoms: _327  and  _328
REMARK  128  A    between atoms: _334  and  _336
REMARK  129  A    between atoms: _336  and  _337
REMARK  130  A    between atoms: _336  and  _339
REMARK  131  A    between atoms: _339  and  _340
REMARK  132  A    between atoms: _340  and  _341
REMARK  133  A    between atoms: _343  and  _345
REMARK  134  A    between atoms: _345  and  _346
REMARK  135  A    between atoms: _345  and  _348
REMARK  136  A    between atoms: _348  and  _349
REMARK  137  A    between atoms: _349  and  _350
REMARK  138  A    between atoms: _350  and  _351
REMARK  139  A    between atoms: _351  and  _352
REMARK  140  A    between atoms: _356  and  _358
REMARK  141  A    between atoms: _358  and  _359
REMARK  142  A    between atoms: _358  and  _361
REMARK  143  A    between atoms: _361  and  _362
REMARK  144  A    between atoms: _367  and  _368
REMARK  145  A    between atoms: _370  and  _372
REMARK  146  A    between atoms: _372  and  _373
REMARK  147  A    between atoms: _372  and  _375
REMARK  148  A    between atoms: _375  and  _376
REMARK  149  A    between atoms: _386  and  _388
REMARK  150  A    between atoms: _388  and  _389
REMARK  151  A    between atoms: _391  and  _393
REMARK  152  A    between atoms: _393  and  _394
REMARK  153  A    between atoms: _399  and  _400
REMARK  154  A    between atoms: _399  and  _402
REMARK  155  A    between atoms: _402  and  _403
REMARK  156  A    between atoms: _405  and  _407
REMARK  157  A    between atoms: _407  and  _408
REMARK  158  A    between atoms: _407  and  _410
REMARK  159  A    between atoms: _410  and  _411
REMARK  160  A    between atoms: _417  and  _419
REMARK  161  A    between atoms: _419  and  _420
REMARK  162  A    between atoms: _419  and  _422
REMARK  163  A    between atoms: _422  and  _423
REMARK  164  A    between atoms: _426  and  _428
REMARK  165  A    between atoms: _428  and  _429
REMARK  166  A    between atoms: _428  and  _431
REMARK  167  A    between atoms: _431  and  _432
REMARK  168  A    between atoms: _432  and  _433
REMARK  169  A    between atoms: _438  and  _440
REMARK  170  A    between atoms: _440  and  _441
REMARK  171  A    between atoms: _440  and  _443
REMARK  172  A    between atoms: _443  and  _444
REMARK  173  A    between atoms: _444  and  _445
REMARK  174  A    between atoms: _445  and  _446
REMARK  175  A    between atoms: _446  and  _447
REMARK  176  A    between atoms: _451  and  _453
REMARK  177  A    between atoms: _453  and  _454
REMARK  178  A    between atoms: _456  and  _458
REMARK  179  A    between atoms: _458  and  _459
REMARK  180  A    between atoms: _458  and  _461
REMARK  181  A    between atoms: _461  and  _462
REMARK  182  A    between atoms: _465  and  _467
REMARK  183  A    between atoms: _467  and  _468
REMARK  184  A    between atoms: _467  and  _470
REMARK  185  A    between atoms: _470  and  _471
REMARK  186  A    between atoms: _474  and  _476
REMARK  187  A    between atoms: _476  and  _477
REMARK  188  A    between atoms: _476  and  _479
REMARK  189  A    between atoms: _479  and  _480
REMARK  190  A    between atoms: _485  and  _487
REMARK  191  A    between atoms: _487  and  _488
REMARK  192  A    between atoms: _487  and  _490
REMARK  193  A    between atoms: _490  and  _491
REMARK  194  A    between atoms: _491  and  _492
REMARK  195  A    between atoms: _497  and  _499
REMARK  196  A    between atoms: _499  and  _500
REMARK  197  A    between atoms: _499  and  _502
REMARK  198  A    between atoms: _502  and  _503
REMARK  199  A    between atoms: _508  and  _509
REMARK  200  A    between atoms: _511  and  _513
REMARK  201  A    between atoms: _513  and  _514
REMARK  202  A    between atoms: _513  and  _516
REMARK  203  A    between atoms: _516  and  _517
REMARK  204  A    between atoms: _519  and  _521
REMARK  205  A    between atoms: _521  and  _522
REMARK  206  A    between atoms: _521  and  _524
REMARK  207  A    between atoms: _524  and  _525
REMARK  208  A    between atoms: _525  and  _526
REMARK  209  A    between atoms: _526  and  _527
REMARK  210  A    between atoms: _536  and  _538
REMARK  211  A    between atoms: _538  and  _539
REMARK  212  A    between atoms: _538  and  _541
REMARK  213  A    between atoms: _541  and  _542
REMARK  214  A    between atoms: _547  and  _548
REMARK  215  A    between atoms: _550  and  _552
REMARK  216  A    between atoms: _552  and  _553
REMARK  217  A    between atoms: _552  and  _555
REMARK  218  A    between atoms: _555  and  _556
REMARK  219  A    between atoms: _558  and  _560
REMARK  220  A    between atoms: _560  and  _561
REMARK  221  A    between atoms: _560  and  _563
REMARK  222  A    between atoms: _563  and  _564
REMARK  223  A    between atoms: _570  and  _572
REMARK  224  A    between atoms: _572  and  _573
REMARK  225  A    between atoms: _572  and  _575
REMARK  226  A    between atoms: _575  and  _576
REMARK                            x       y       z     vdW  Elec       q    Type
REMARK                         _______ _______ _______ _____ _____    ______ ____
ROOT
ATOM      1  CA  ASP A   2      20.864  16.095  47.672  0.00  0.00    +0.160 C 
ENDROOT
BRANCH   1   3
ATOM      2  C   ASP A   1      22.968  15.143  48.260  0.00  0.00    +0.239 C 
ATOM      3  N   ASP A   2      21.813  15.649  48.663  0.00  0.00    -0.297 N 
ATOM      4  H   ASP A   2      21.593  15.724  49.677  0.00  0.00    +0.150 HD
ATOM      5  O   ASP A   1      23.266  15.003  47.068  0.00  0.00    -0.274 OA
BRANCH   2   6
ATOM      6  CA  ASP A   1      23.927  14.767  49.375  0.00  0.00    +0.156 C 
BRANCH   6   7
ATOM      7  N   ASP A   1      24.794  13.694  48.953  0.00  0.00    -0.238 NA
ATOM      8  H   ASP A   1      25.243  13.728  48.016  0.00  0.00    +0.142 HD
ENDBRANCH   6   7
BRANCH   6   9
ATOM      9  CB  ASP A   1      24.793  16.029  49.571  0.00  0.00    +0.140 C 
BRANCH   9  10
ATOM     10  CG  ASP A   1      25.568  16.077  50.855  0.00  0.00    +0.367 C 
ATOM     11  OD2 ASP A   1      25.277  15.401  51.812  0.00  0.00    -0.246 OA
ATOM     12  OD1 ASP A   1      26.539  16.959  50.858  0.00  0.00    -0.246 OA
ENDBRANCH   9  10
ENDBRANCH   6   9
ENDBRANCH   2   6
ENDBRANCH   1   3
BRANCH   1  13
ATOM     13  C   ASP A   2      21.538  17.342  47.109  0.00  0.00    +0.241 C 
ATOM     14  O   ASP A   2      22.348  17.957  47.798  0.00  0.00    -0.273 OA
ATOM     15  N   HIS A   3      21.231  17.736  45.880  0.00  0.00    -0.298 N 
ATOM     16  H   HIS A   3      20.544  17.180  45.332  0.00  0.00    +0.150 HD
BRANCH  15  17
ATOM     17  CA  HIS A   3      21.822  18.919  45.270  0.00  0.00    +0.143 C 
BRANCH  17  18
ATOM     18  C   HIS A   3      20.719  19.550  44.440  0.00  0.00    +0.227 C 
ATOM     19  O   HIS A   3      20.358  19.054  43.386  0.00  0.00    -0.286 OA
ENDBRANCH  17  18
BRANCH  17  20
ATOM     20  CB  HIS A   3      23.057  18.591  44.392  0.00  0.00    +0.075 C 
BRANCH  20  21
ATOM     21  CG  HIS A   3      23.826  19.757  43.804  0.00  0.00    +0.082 A 
ATOM     22  ND1 HIS A   3      25.041  20.178  44.326  0.00  0.00    -0.227 NA
ATOM     23  CE1 HIS A   3      25.471  21.199  43.588  0.00  0.00    +0.199 A 
ATOM     24  NE2 HIS A   3      24.594  21.456  42.631  0.00  0.00    -0.221 NA
ATOM     25  CD2 HIS A   3      23.548  20.559  42.737  0.00  0.00    +0.115 A 
ENDBRANCH  20  21
ENDBRANCH  17  20
ENDBRANCH  15  17
ENDBRANCH   1  13
BRANCH   1  26
ATOM     26  CB  ASP A   2      19.593  16.616  48.358  0.00  0.00    +0.143 C 
BRANCH  26  27
ATOM     27  CG  ASP A   2      18.593  15.560  48.698  0.00  0.00    +0.367 C 
ATOM     28  OD2 ASP A   2      17.585  15.793  49.327  0.00  0.00    -0.246 OA
ATOM     29  OD1 ASP A   2      18.923  14.376  48.256  0.00  0.00    -0.246 OA
ENDBRANCH  26  27
ENDBRANCH   1  26
TORSDOF 12
REMARK  Name = ../refined-set-2016/1erb/1erb_pocket.pdb
REMARK  226 active torsions:
REMARK  status: ('A' for Active; 'I' for Inactive)
REMARK    1  A    between atoms: _1  and  _3
REMARK    2  A    between atoms: _3  and  _4
REMARK    3  A    between atoms: _3  and  _6
REMARK    4  A    between atoms: _6  and  _7
REMARK    5  A    between atoms: _13  and  _15
REMARK    6  A    between atoms: _15  and  _16
REMARK    7  A    between atoms: _15  and  _18
REMARK    8  A    between atoms: _18  and  _19
REMARK    9  A    between atoms: _29  and  _31
REMARK   10  A    between atoms: _31  and  _32
REMARK   11  A    between atoms: _36  and  _37
REMARK   12  A    between atoms: _42  and  _44
REMARK   13  A    between atoms: _44  and  _45
REMARK   14  A    between atoms: _47  and  _49
REMARK   15  A    between atoms: _49  and  _50
REMARK   16  A    between atoms: _49  and  _52
REMARK   17  A    between atoms: _52  and  _53
REMARK   18  A    between atoms: _56  and  _58
REMARK   19  A    between atoms: _58  and  _59
REMARK   20  A    between atoms: _58  and  _61
REMARK   21  A    between atoms: _61  and  _62
REMARK   22  A    between atoms: _68  and  _70
REMARK   23  A    between atoms: _70  and  _71
REMARK   24  A    between atoms: _70  and  _73
REMARK   25  A    between atoms: _73  and  _74
REMARK   26  A    between atoms: _77  and  _79
REMARK   27  A    between atoms: _79  and  _80
REMARK   28  A    between atoms: _79  and  _82
REMARK   29  A    between atoms: _82  and  _83
REMARK   30  A    between atoms: _83  and  _84
REMARK   31  A    between atoms: _89  and  _91
REMARK   32  A    between atoms: _91  and  _92
REMARK   33  A    between atoms: _91  and  _94
REMARK   34  A    between atoms: _94  and  _95
REMARK   35  A    between atoms: _98  and  _100
REMARK   36  A    between atoms: _100  and  _101
REMARK   37  A    between atoms: _100  and  _103
REMARK   38  A    between atoms: _106  and  _108
REMARK   39  A    between atoms: _108  and  _109
REMARK   40  A    between atoms: _112  and  _114
REMARK   41  A    between atoms: _114  and  _115
REMARK   42  A    between atoms: _114  and  _117
REMARK   43  A    between atoms: _117  and  _118
REMARK   44  A    between atoms: _118  and  _119
REMARK   45  A    between atoms: _122  and  _124
REMARK   46  A    between atoms: _124  and  _125
REMARK   47  A    between atoms: _124  and  _127
REMARK   48  A    between atoms: _127  and  _128
REMARK   49  A    between atoms: _134  and  _136
REMARK   50  A    between atoms: _136  and  _137
REMARK   51  A    between atoms: _136  and  _139
REMARK   52  A    between atoms: _139  and  _140
REMARK   53  A    between atoms: _142  and  _144
REMARK   54  A    between atoms: _144  and  _145
REMARK   55  A    between atoms: _148  and  _150
REMARK   56  A    between atoms: _150  and  _151
REMARK   57  A    between atoms: _150  and  _153
REMARK   58  A    between atoms: _153  and  _154
REMARK   59  A    between atoms: _157  and  _159
REMARK   60  A    between atoms: _159  and  _160
REMARK   61  A    between atoms: _163  and  _165
REMARK   62  A    between atoms: _165  and  _166
REMARK   63  A    between atoms: _165  and  _168
REMARK   64  A    between atoms: _168  and  _169
REMARK   65  A    between atoms: _169  and  _170
REMARK   66  A    between atoms: _170  and  _171
REMARK   67  A    between atoms: _171  and  _172
REMARK   68  A    between atoms: _176  and  _178
REMARK   69  A    between atoms: _178  and  _179
REMARK   70  A    between atoms: _181  and  _183
REMARK   71  A    between atoms: _183  and  _184
REMARK   72  A    between atoms: _183  and  _186
REMARK   73  A    between atoms: _186  and  _187
REMARK   74  A    between atoms: _187  and  _188
REMARK   75  A    between atoms: _188  and  _189
REMARK   76  A    between atoms: _198  and  _200
REMARK   77  A    between atoms: _200  and  _201
REMARK   78  A    between atoms: _200  and  _203
REMARK   79  A    between atoms: _206  and  _208
REMARK   80  A    between atoms: _208  and  _209
REMARK   81  A    between atoms: _208  and  _211
REMARK   82  A    between atoms: _211  and  _212
REMARK   83  A    between atoms: _212  and  _213
REMARK   84  A    between atoms: _213  and  _214
REMARK   85  A    between atoms: _223  and  _225
REMARK   86  A    between atoms: _225  and  _226
REMARK   87  A    between atoms: _225  and  _228
REMARK   88  A    between atoms: _228  and  _229
REMARK   89  A    between atoms: _232  and  _234
REMARK   90  A    between atoms: _234  and  _235
REMARK   91  A    between atoms: _234  and  _237
REMARK   92  A    between atoms: _237  and  _238
REMARK   93  A    between atoms: _241  and  _243
REMARK   94  A    between atoms: _243  and  _244
REMARK   95  A    between atoms: _243  and  _246
REMARK   96  A    between atoms: _246  and  _247
REMARK   97  A    between atoms: _252  and  _254
REMARK   98  A    between atoms: _254  and  _255
REMARK   99  A    between atoms: _254  and  _257
REMARK  100  A    between atoms: _257  and  _258
REMARK  101  A    between atoms: _268  and  _270
REMARK  102  A    between atoms: _270  and  _271
REMARK  103  A    between atoms: _270  and  _273
REMARK  104  A    between atoms: _276  and  _278
REMARK  105  A    between atoms: _278  and  _279
REMARK  106  A    between atoms: _282  and  _284
REMARK  107  A    between atoms: _284  and  _285
REMARK  108  A    between atoms: _284  and  _287
REMARK  109  A    between atoms: _287  and  _288
REMARK  110  A    between atoms: _291  and  _293
REMARK  111  A    between atoms: _293  and  _294
REMARK  112  A    between atoms: _293  and  _296
REMARK  113  A    between atoms: _296  and  _297
REMARK  114  A    between atoms: _297  and  _298
REMARK  115  A    between atoms: _300  and  _302
REMARK  116  A    between atoms: _302  and  _303
REMARK  117  A    between atoms: _302  and  _305
REMARK  118  A    between atoms: _308  and  _310
REMARK  119  A    between atoms: _310  and  _311
REMARK  120  A    between atoms: _313  and  _315
REMARK  121  A    between atoms: _315  and  _316
REMARK  122  A    between atoms: _315  and  _318
REMARK  123  A    between atoms: _318  and  _319
REMARK  124  A    between atoms: _322  and  _324
REMARK  125  A    between atoms: _324  and  _325
REMARK  126  A    between atoms: _324  and  _327
REMARK  127  A    between atoms: _327  and  _328
REMARK  128  A    between atoms: _334  and  _336
REMARK  129  A    between atoms: _336  and  _337
REMARK  130  A    between atoms: _336  and  _339
REMARK  131  A    between atoms: _339  and  _340
REMARK  132  A    between atoms: _340  and  _341
REMARK  133  A    between atoms: _343  and  _345
REMARK  134  A    between atoms: _345  and  _346
REMARK  135  A    between atoms: _345  and  _348
REMARK  136  A    between atoms: _348  and  _349
REMARK  137  A    between atoms: _349  and  _350
REMARK  138  A    between atoms: _350  and  _351
REMARK  139  A    between atoms: _351  and  _352
REMARK  140  A    between atoms: _356  and  _358
REMARK  141  A    between atoms: _358  and  _359
REMARK  142  A    between atoms: _358  and  _361
REMARK  143  A    between atoms: _361  and  _362
REMARK  144  A    between atoms: _367  and  _368
REMARK  145  A    between atoms: _370  and  _372
REMARK  146  A    between atoms: _372  and  _373
REMARK  147  A    between atoms: _372  and  _375
REMARK  148  A    between atoms: _375  and  _376
REMARK  149  A    between atoms: _386  and  _388
REMARK  150  A    between atoms: _388  and  _389
REMARK  151  A    between atoms: _391  and  _393
REMARK  152  A    between atoms: _393  and  _394
REMARK  153  A    between atoms: _399  and  _400
REMARK  154  A    between atoms: _399  and  _402
REMARK  155  A    between atoms: _402  and  _403
REMARK  156  A    between atoms: _405  and  _407
REMARK  157  A    between atoms: _407  and  _408
REMARK  158  A    between atoms: _407  and  _410
REMARK  159  A    between atoms: _410  and  _411
REMARK  160  A    between atoms: _417  and  _419
REMARK  161  A    between atoms: _419  and  _420
REMARK  162  A    between atoms: _419  and  _422
REMARK  163  A    between atoms: _422  and  _423
REMARK  164  A    between atoms: _426  and  _428
REMARK  165  A    between atoms: _428  and  _429
REMARK  166  A    between atoms: _428  and  _431
REMARK  167  A    between atoms: _431  and  _432
REMARK  168  A    between atoms: _432  and  _433
REMARK  169  A    between atoms: _438  and  _440
REMARK  170  A    between atoms: _440  and  _441
REMARK  171  A    between atoms: _440  and  _443
REMARK  172  A    between atoms: _443  and  _444
REMARK  173  A    between atoms: _444  and  _445
REMARK  174  A    between atoms: _445  and  _446
REMARK  175  A    between atoms: _446  and  _447
REMARK  176  A    between atoms: _451  and  _453
REMARK  177  A    between atoms: _453  and  _454
REMARK  178  A    between atoms: _456  and  _458
REMARK  179  A    between atoms: _458  and  _459
REMARK  180  A    between atoms: _458  and  _461
REMARK  181  A    between atoms: _461  and  _462
REMARK  182  A    between atoms: _465  and  _467
REMARK  183  A    between atoms: _467  and  _468
REMARK  184  A    between atoms: _467  and  _470
REMARK  185  A    between atoms: _470  and  _471
REMARK  186  A    between atoms: _474  and  _476
REMARK  187  A    between atoms: _476  and  _477
REMARK  188  A    between atoms: _476  and  _479
REMARK  189  A    between atoms: _479  and  _480
REMARK  190  A    between atoms: _485  and  _487
REMARK  191  A    between atoms: _487  and  _488
REMARK  192  A    between atoms: _487  and  _490
REMARK  193  A    between atoms: _490  and  _491
REMARK  194  A    between atoms: _491  and  _492
REMARK  195  A    between atoms: _497  and  _499
REMARK  196  A    between atoms: _499  and  _500
REMARK  197  A    between atoms: _499  and  _502
REMARK  198  A    between atoms: _502  and  _503
REMARK  199  A    between atoms: _508  and  _509
REMARK  200  A    between atoms: _511  and  _513
REMARK  201  A    between atoms: _513  and  _514
REMARK  202  A    between atoms: _513  and  _516
REMARK  203  A    between atoms: _516  and  _517
REMARK  204  A    between atoms: _519  and  _521
REMARK  205  A    between atoms: _521  and  _522
REMARK  206  A    between atoms: _521  and  _524
REMARK  207  A    between atoms: _524  and  _525
REMARK  208  A    between atoms: _525  and  _526
REMARK  209  A    between atoms: _526  and  _527
REMARK  210  A    between atoms: _536  and  _538
REMARK  211  A    between atoms: _538  and  _539
REMARK  212  A    between atoms: _538  and  _541
REMARK  213  A    between atoms: _541  and  _542
REMARK  214  A    between atoms: _547  and  _548
REMARK  215  A    between atoms: _550  and  _552
REMARK  216  A    between atoms: _552  and  _553
REMARK  217  A    between atoms: _552  and  _555
REMARK  218  A    between atoms: _555  and  _556
REMARK  219  A    between atoms: _558  and  _560
REMARK  220  A    between atoms: _560  and  _561
REMARK  221  A    between atoms: _560  and  _563
REMARK  222  A    between atoms: _563  and  _564
REMARK  223  A    between atoms: _570  and  _572
REMARK  224  A    between atoms: _572  and  _573
REMARK  225  A    between atoms: _572  and  _575
REMARK  226  A    between atoms: _575  and  _576
REMARK                            x       y       z     vdW  Elec       q    Type
REMARK                         _______ _______ _______ _____ _____    ______ ____
ROOT
ATOM      1  CA  TYR A   2      20.951  24.221  48.179  0.00  0.00    +0.153 C 
ENDROOT
BRANCH   1   4
ATOM      2  C   GLN A   1      21.934  25.719  46.515  0.00  0.00    +0.238 C 
ATOM      3  O   GLN A   1      22.135  26.585  47.365  0.00  0.00    -0.274 OA
ATOM      4  N   TYR A   2      21.375  24.556  46.831  0.00  0.00    -0.297 N 
ATOM      5  H   TYR A   2      21.234  23.853  46.078  0.00  0.00    +0.150 HD
BRANCH   2   6
ATOM      6  CA  GLN A   1      22.318  25.905  45.042  0.00  0.00    +0.145 C 
BRANCH   6   7
ATOM      7  N   GLN A   1      22.380  27.314  44.718  0.00  0.00    -0.238 NA
ATOM      8  H   GLN A   1      23.122  27.888  45.166  0.00  0.00    +0.142 HD
ENDBRANCH   6   7
BRANCH   6   9
ATOM      9  CB  GLN A   1      23.694  25.274  44.695  0.00  0.00    +0.036 C 
BRANCH   9  10
ATOM     10  CG  GLN A   1      23.890  23.806  45.116  0.00  0.00    +0.087 C 
BRANCH  10  11
ATOM     11  CD  GLN A   1      24.364  23.680  46.548  0.00  0.00    +0.219 C 
ATOM     12  OE1 GLN A   1      24.652  24.685  47.201  0.00  0.00    -0.275 OA
ATOM     13  NE2 GLN A   1      24.402  22.461  47.067  0.00  0.00    -0.329 N 
ATOM     14 HE21 GLN A   1      24.683  22.327  48.059  0.00  0.00    +0.145 HD
ATOM     15 HE22 GLN A   1      24.151  21.639  46.482  0.00  0.00    +0.145 HD
ENDBRANCH  10  11
ENDBRANCH   9  10
ENDBRANCH   6   9
ENDBRANCH   2   6
ENDBRANCH   1   4
BRANCH   1  16
ATOM     16  C   TYR A   2      20.927  22.722  48.474  0.00  0.00    +0.241 C 
ATOM     17  N   SER A   3      21.143  22.396  49.737  0.00  0.00    -0.296 N 
ATOM     18  H   SER A   3      21.335  23.150  50.427  0.00  0.00    +0.150 HD
ATOM     19  O   TYR A   2      20.706  21.876  47.598  0.00  0.00    -0.273 OA
BRANCH  17  20
ATOM     20  CA  SER A   3      21.120  21.019  50.187  0.00  0.00    +0.166 C 
BRANCH  20  21
ATOM     21  C   SER A   3      20.733  20.957  51.655  0.00  0.00    +0.229 C 
ATOM     22  O   SER A   3      21.281  21.653  52.491  0.00  0.00    -0.286 OA
ENDBRANCH  20  21
BRANCH  20  23
ATOM     23  CB  SER A   3      22.396  20.186  49.998  0.00  0.00    +0.165 C 
BRANCH  23  24
ATOM     24  OG  SER A   3      23.161  20.671  48.915  0.00  0.00    -0.380 OA
ATOM     25  H   SER A   3      23.976  20.118  48.815  0.00  0.00    +0.211 HD
ENDBRANCH  23  24
ENDBRANCH  20  23
ENDBRANCH  17  20
ENDBRANCH   1  16
BRANCH   1  26
ATOM     26  CB  TYR A   2      19.511  24.726  48.308  0.00  0.00    +0.055 C 
BRANCH  26  27
ATOM     27  CG  TYR A   2      18.813  24.371  49.594  0.00  0.00    -0.020 A 
ATOM     28  CD2 TYR A   2      19.081  25.134  50.727  0.00  0.00    -0.001 A 
ATOM     29  CE2 TYR A   2      18.459  24.869  51.945  0.00  0.00    +0.036 A 
ATOM     30  CZ  TYR A   2      17.548  23.818  52.030  0.00  0.00    +0.134 A 
ATOM     31  CE1 TYR A   2      17.259  23.043  50.908  0.00  0.00    +0.036 A 
ATOM     32  CD1 TYR A   2      17.887  23.335  49.693  0.00  0.00    -0.001 A 
BRANCH  30  33
ATOM     33  OH  TYR A   2      16.951  23.597  53.242  0.00  0.00    -0.506 OA
ATOM     34  HH  TYR A   2      17.292  24.252  53.901  0.00  0.00    +0.292 HD
ENDBRANCH  30  33
ENDBRANCH  26  27
ENDBRANCH   1  26
TORSDOF 14
REMARK  Name = ../refined-set-2016/1erb/1erb_pocket.pdb
REMARK  226 active torsions:
REMARK  status: ('A' for Active; 'I' for Inactive)
REMARK    1  A    between atoms: _1  and  _3
REMARK    2  A    between atoms: _3  and  _4
REMARK    3  A    between atoms: _3  and  _6
REMARK    4  A    between atoms: _6  and  _7
REMARK    5  A    between atoms: _13  and  _15
REMARK    6  A    between atoms: _15  and  _16
REMARK    7  A    between atoms: _15  and  _18
REMARK    8  A    between atoms: _18  and  _19
REMARK    9  A    between atoms: _29  and  _31
REMARK   10  A    between atoms: _31  and  _32
REMARK   11  A    between atoms: _36  and  _37
REMARK   12  A    between atoms: _42  and  _44
REMARK   13  A    between atoms: _44  and  _45
REMARK   14  A    between atoms: _47  and  _49
REMARK   15  A    between atoms: _49  and  _50
REMARK   16  A    between atoms: _49  and  _52
REMARK   17  A    between atoms: _52  and  _53
REMARK   18  A    between atoms: _56  and  _58
REMARK   19  A    between atoms: _58  and  _59
REMARK   20  A    between atoms: _58  and  _61
REMARK   21  A    between atoms: _61  and  _62
REMARK   22  A    between atoms: _68  and  _70
REMARK   23  A    between atoms: _70  and  _71
REMARK   24  A    between atoms: _70  and  _73
REMARK   25  A    between atoms: _73  and  _74
REMARK   26  A    between atoms: _77  and  _79
REMARK   27  A    between atoms: _79  and  _80
REMARK   28  A    between atoms: _79  and  _82
REMARK   29  A    between atoms: _82  and  _83
REMARK   30  A    between atoms: _83  and  _84
REMARK   31  A    between atoms: _89  and  _91
REMARK   32  A    between atoms: _91  and  _92
REMARK   33  A    between atoms: _91  and  _94
REMARK   34  A    between atoms: _94  and  _95
REMARK   35  A    between atoms: _98  and  _100
REMARK   36  A    between atoms: _100  and  _101
REMARK   37  A    between atoms: _100  and  _103
REMARK   38  A    between atoms: _106  and  _108
REMARK   39  A    between atoms: _108  and  _109
REMARK   40  A    between atoms: _112  and  _114
REMARK   41  A    between atoms: _114  and  _115
REMARK   42  A    between atoms: _114  and  _117
REMARK   43  A    between atoms: _117  and  _118
REMARK   44  A    between atoms: _118  and  _119
REMARK   45  A    between atoms: _122  and  _124
REMARK   46  A    between atoms: _124  and  _125
REMARK   47  A    between atoms: _124  and  _127
REMARK   48  A    between atoms: _127  and  _128
REMARK   49  A    between atoms: _134  and  _136
REMARK   50  A    between atoms: _136  and  _137
REMARK   51  A    between atoms: _136  and  _139
REMARK   52  A    between atoms: _139  and  _140
REMARK   53  A    between atoms: _142  and  _144
REMARK   54  A    between atoms: _144  and  _145
REMARK   55  A    between atoms: _148  and  _150
REMARK   56  A    between atoms: _150  and  _151
REMARK   57  A    between atoms: _150  and  _153
REMARK   58  A    between atoms: _153  and  _154
REMARK   59  A    between atoms: _157  and  _159
REMARK   60  A    between atoms: _159  and  _160
REMARK   61  A    between atoms: _163  and  _165
REMARK   62  A    between atoms: _165  and  _166
REMARK   63  A    between atoms: _165  and  _168
REMARK   64  A    between atoms: _168  and  _169
REMARK   65  A    between atoms: _169  and  _170
REMARK   66  A    between atoms: _170  and  _171
REMARK   67  A    between atoms: _171  and  _172
REMARK   68  A    between atoms: _176  and  _178
REMARK   69  A    between atoms: _178  and  _179
REMARK   70  A    between atoms: _181  and  _183
REMARK   71  A    between atoms: _183  and  _184
REMARK   72  A    between atoms: _183  and  _186
REMARK   73  A    between atoms: _186  and  _187
REMARK   74  A    between atoms: _187  and  _188
REMARK   75  A    between atoms: _188  and  _189
REMARK   76  A    between atoms: _198  and  _200
REMARK   77  A    between atoms: _200  and  _201
REMARK   78  A    between atoms: _200  and  _203
REMARK   79  A    between atoms: _206  and  _208
REMARK   80  A    between atoms: _208  and  _209
REMARK   81  A    between atoms: _208  and  _211
REMARK   82  A    between atoms: _211  and  _212
REMARK   83  A    between atoms: _212  and  _213
REMARK   84  A    between atoms: _213  and  _214
REMARK   85  A    between atoms: _223  and  _225
REMARK   86  A    between atoms: _225  and  _226
REMARK   87  A    between atoms: _225  and  _228
REMARK   88  A    between atoms: _228  and  _229
REMARK   89  A    between atoms: _232  and  _234
REMARK   90  A    between atoms: _234  and  _235
REMARK   91  A    between atoms: _234  and  _237
REMARK   92  A    between atoms: _237  and  _238
REMARK   93  A    between atoms: _241  and  _243
REMARK   94  A    between atoms: _243  and  _244
REMARK   95  A    between atoms: _243  and  _246
REMARK   96  A    between atoms: _246  and  _247
REMARK   97  A    between atoms: _252  and  _254
REMARK   98  A    between atoms: _254  and  _255
REMARK   99  A    between atoms: _254  and  _257
REMARK  100  A    between atoms: _257  and  _258
REMARK  101  A    between atoms: _268  and  _270
REMARK  102  A    between atoms: _270  and  _271
REMARK  103  A    between atoms: _270  and  _273
REMARK  104  A    between atoms: _276  and  _278
REMARK  105  A    between atoms: _278  and  _279
REMARK  106  A    between atoms: _282  and  _284
REMARK  107  A    between atoms: _284  and  _285
REMARK  108  A    between atoms: _284  and  _287
REMARK  109  A    between atoms: _287  and  _288
REMARK  110  A    between atoms: _291  and  _293
REMARK  111  A    between atoms: _293  and  _294
REMARK  112  A    between atoms: _293  and  _296
REMARK  113  A    between atoms: _296  and  _297
REMARK  114  A    between atoms: _297  and  _298
REMARK  115  A    between atoms: _300  and  _302
REMARK  116  A    between atoms: _302  and  _303
REMARK  117  A    between atoms: _302  and  _305
REMARK  118  A    between atoms: _308  and  _310
REMARK  119  A    between atoms: _310  and  _311
REMARK  120  A    between atoms: _313  and  _315
REMARK  121  A    between atoms: _315  and  _316
REMARK  122  A    between atoms: _315  and  _318
REMARK  123  A    between atoms: _318  and  _319
REMARK  124  A    between atoms: _322  and  _324
REMARK  125  A    between atoms: _324  and  _325
REMARK  126  A    between atoms: _324  and  _327
REMARK  127  A    between atoms: _327  and  _328
REMARK  128  A    between atoms: _334  and  _336
REMARK  129  A    between atoms: _336  and  _337
REMARK  130  A    between atoms: _336  and  _339
REMARK  131  A    between atoms: _339  and  _340
REMARK  132  A    between atoms: _340  and  _341
REMARK  133  A    between atoms: _343  and  _345
REMARK  134  A    between atoms: _345  and  _346
REMARK  135  A    between atoms: _345  and  _348
REMARK  136  A    between atoms: _348  and  _349
REMARK  137  A    between atoms: _349  and  _350
REMARK  138  A    between atoms: _350  and  _351
REMARK  139  A    between atoms: _351  and  _352
REMARK  140  A    between atoms: _356  and  _358
REMARK  141  A    between atoms: _358  and  _359
REMARK  142  A    between atoms: _358  and  _361
REMARK  143  A    between atoms: _361  and  _362
REMARK  144  A    between atoms: _367  and  _368
REMARK  145  A    between atoms: _370  and  _372
REMARK  146  A    between atoms: _372  and  _373
REMARK  147  A    between atoms: _372  and  _375
REMARK  148  A    between atoms: _375  and  _376
REMARK  149  A    between atoms: _386  and  _388
REMARK  150  A    between atoms: _388  and  _389
REMARK  151  A    between atoms: _391  and  _393
REMARK  152  A    between atoms: _393  and  _394
REMARK  153  A    between atoms: _399  and  _400
REMARK  154  A    between atoms: _399  and  _402
REMARK  155  A    between atoms: _402  and  _403
REMARK  156  A    between atoms: _405  and  _407
REMARK  157  A    between atoms: _407  and  _408
REMARK  158  A    between atoms: _407  and  _410
REMARK  159  A    between atoms: _410  and  _411
REMARK  160  A    between atoms: _417  and  _419
REMARK  161  A    between atoms: _419  and  _420
REMARK  162  A    between atoms: _419  and  _422
REMARK  163  A    between atoms: _422  and  _423
REMARK  164  A    between atoms: _426  and  _428
REMARK  165  A    between atoms: _428  and  _429
REMARK  166  A    between atoms: _428  and  _431
REMARK  167  A    between atoms: _431  and  _432
REMARK  168  A    between atoms: _432  and  _433
REMARK  169  A    between atoms: _438  and  _440
REMARK  170  A    between atoms: _440  and  _441
REMARK  171  A    between atoms: _440  and  _443
REMARK  172  A    between atoms: _443  and  _444
REMARK  173  A    between atoms: _444  and  _445
REMARK  174  A    between atoms: _445  and  _446
REMARK  175  A    between atoms: _446  and  _447
REMARK  176  A    between atoms: _451  and  _453
REMARK  177  A    between atoms: _453  and  _454
REMARK  178  A    between atoms: _456  and  _458
REMARK  179  A    between atoms: _458  and  _459
REMARK  180  A    between atoms: _458  and  _461
REMARK  181  A    between atoms: _461  and  _462
REMARK  182  A    between atoms: _465  and  _467
REMARK  183  A    between atoms: _467  and  _468
REMARK  184  A    between atoms: _467  and  _470
REMARK  185  A    between atoms: _470  and  _471
REMARK  186  A    between atoms: _474  and  _476
REMARK  187  A    between atoms: _476  and  _477
REMARK  188  A    between atoms: _476  and  _479
REMARK  189  A    between atoms: _479  and  _480
REMARK  190  A    between atoms: _485  and  _487
REMARK  191  A    between atoms: _487  and  _488
REMARK  192  A    between atoms: _487  and  _490
REMARK  193  A    between atoms: _490  and  _491
REMARK  194  A    between atoms: _491  and  _492
REMARK  195  A    between atoms: _497  and  _499
REMARK  196  A    between atoms: _499  and  _500
REMARK  197  A    between atoms: _499  and  _502
REMARK  198  A    between atoms: _502  and  _503
REMARK  199  A    between atoms: _508  and  _509
REMARK  200  A    between atoms: _511  and  _513
REMARK  201  A    between atoms: _513  and  _514
REMARK  202  A    between atoms: _513  and  _516
REMARK  203  A    between atoms: _516  and  _517
REMARK  204  A    between atoms: _519  and  _521
REMARK  205  A    between atoms: _521  and  _522
REMARK  206  A    between atoms: _521  and  _524
REMARK  207  A    between atoms: _524  and  _525
REMARK  208  A    between atoms: _525  and  _526
REMARK  209  A    between atoms: _526  and  _527
REMARK  210  A    between atoms: _536  and  _538
REMARK  211  A    between atoms: _538  and  _539
REMARK  212  A    between atoms: _538  and  _541
REMARK  213  A    between atoms: _541  and  _542
REMARK  214  A    between atoms: _547  and  _548
REMARK  215  A    between atoms: _550  and  _552
REMARK  216  A    between atoms: _552  and  _553
REMARK  217  A    between atoms: _552  and  _555
REMARK  218  A    between atoms: _555  and  _556
REMARK  219  A    between atoms: _558  and  _560
REMARK  220  A    between atoms: _560  and  _561
REMARK  221  A    between atoms: _560  and  _563
REMARK  222  A    between atoms: _563  and  _564
REMARK  223  A    between atoms: _570  and  _572
REMARK  224  A    between atoms: _572  and  _573
REMARK  225  A    between atoms: _572  and  _575
REMARK  226  A    between atoms: _575  and  _576
REMARK                            x       y       z     vdW  Elec       q    Type
REMARK                         _______ _______ _______ _____ _____    ______ ____
ROOT
ATOM      1  NE  ARG A   1      25.796  17.711  54.773  0.00  0.00    -0.265 N 
ATOM      2  HE  ARG A   1      25.468  17.965  55.727  0.00  0.00    +0.259 HD
ATOM      3  CZ  ARG A   1      27.102  17.918  54.583  0.00  0.00    +0.342 C 
ATOM      4  NH2 ARG A   1      27.835  18.418  55.581  0.00  0.00    -0.292 N 
ATOM      5 HH21 ARG A   1      27.388  18.641  56.493  0.00  0.00    +0.255 HD
ATOM      6 HH22 ARG A   1      28.853  18.584  55.446  0.00  0.00    +0.255 HD
ATOM      7  NH1 ARG A   1      27.749  17.641  53.434  0.00  0.00    -0.292 N 
ATOM      8 HH11 ARG A   1      28.769  17.827  53.354  0.00  0.00    +0.255 HD
ATOM      9 HH12 ARG A   1      27.228  17.241  52.627  0.00  0.00    +0.255 HD
ENDROOT
BRANCH   1  10
ATOM     10  CD  ARG A   1      24.754  17.206  53.919  0.00  0.00    +0.174 C 
BRANCH  10  11
ATOM     11  CG  ARG A   1      23.529  17.944  54.423  0.00  0.00    +0.045 C 
BRANCH  11  12
ATOM     12  CB  ARG A   1      22.702  17.267  55.507  0.00  0.00    +0.029 C 
BRANCH  12  13
ATOM     13  CA  ARG A   1      21.284  17.105  54.987  0.00  0.00    +0.133 C 
BRANCH  13  14
ATOM     14  N   ARG A   1      20.704  18.381  54.629  0.00  0.00    -0.239 NA
ATOM     15  H   ARG A   1      20.950  19.231  55.175  0.00  0.00    +0.142 HD
ENDBRANCH  13  14
BRANCH  13  16
ATOM     16  C   ARG A   1      20.524  16.389  56.053  0.00  0.00    +0.224 C 
ATOM     17  O   ARG A   1      20.813  15.229  56.324  0.00  0.00    -0.287 OA
ENDBRANCH  13  16
ENDBRANCH  12  13
ENDBRANCH  11  12
ENDBRANCH  10  11
ENDBRANCH   1  10
TORSDOF 6
REMARK  Name = ../refined-set-2016/1erb/1erb_pocket.pdb
REMARK  226 active torsions:
REMARK  status: ('A' for Active; 'I' for Inactive)
REMARK    1  A    between atoms: _1  and  _3
REMARK    2  A    between atoms: _3  and  _4
REMARK    3  A    between atoms: _3  and  _6
REMARK    4  A    between atoms: _6  and  _7
REMARK    5  A    between atoms: _13  and  _15
REMARK    6  A    between atoms: _15  and  _16
REMARK    7  A    between atoms: _15  and  _18
REMARK    8  A    between atoms: _18  and  _19
REMARK    9  A    between atoms: _29  and  _31
REMARK   10  A    between atoms: _31  and  _32
REMARK   11  A    between atoms: _36  and  _37
REMARK   12  A    between atoms: _42  and  _44
REMARK   13  A    between atoms: _44  and  _45
REMARK   14  A    between atoms: _47  and  _49
REMARK   15  A    between atoms: _49  and  _50
REMARK   16  A    between atoms: _49  and  _52
REMARK   17  A    between atoms: _52  and  _53
REMARK   18  A    between atoms: _56  and  _58
REMARK   19  A    between atoms: _58  and  _59
REMARK   20  A    between atoms: _58  and  _61
REMARK   21  A    between atoms: _61  and  _62
REMARK   22  A    between atoms: _68  and  _70
REMARK   23  A    between atoms: _70  and  _71
REMARK   24  A    between atoms: _70  and  _73
REMARK   25  A    between atoms: _73  and  _74
REMARK   26  A    between atoms: _77  and  _79
REMARK   27  A    between atoms: _79  and  _80
REMARK   28  A    between atoms: _79  and  _82
REMARK   29  A    between atoms: _82  and  _83
REMARK   30  A    between atoms: _83  and  _84
REMARK   31  A    between atoms: _89  and  _91
REMARK   32  A    between atoms: _91  and  _92
REMARK   33  A    between atoms: _91  and  _94
REMARK   34  A    between atoms: _94  and  _95
REMARK   35  A    between atoms: _98  and  _100
REMARK   36  A    between atoms: _100  and  _101
REMARK   37  A    between atoms: _100  and  _103
REMARK   38  A    between atoms: _106  and  _108
REMARK   39  A    between atoms: _108  and  _109
REMARK   40  A    between atoms: _112  and  _114
REMARK   41  A    between atoms: _114  and  _115
REMARK   42  A    between atoms: _114  and  _117
REMARK   43  A    between atoms: _117  and  _118
REMARK   44  A    between atoms: _118  and  _119
REMARK   45  A    between atoms: _122  and  _124
REMARK   46  A    between atoms: _124  and  _125
REMARK   47  A    between atoms: _124  and  _127
REMARK   48  A    between atoms: _127  and  _128
REMARK   49  A    between atoms: _134  and  _136
REMARK   50  A    between atoms: _136  and  _137
REMARK   51  A    between atoms: _136  and  _139
REMARK   52  A    between atoms: _139  and  _140
REMARK   53  A    between atoms: _142  and  _144
REMARK   54  A    between atoms: _144  and  _145
REMARK   55  A    between atoms: _148  and  _150
REMARK   56  A    between atoms: _150  and  _151
REMARK   57  A    between atoms: _150  and  _153
REMARK   58  A    between atoms: _153  and  _154
REMARK   59  A    between atoms: _157  and  _159
REMARK   60  A    between atoms: _159  and  _160
REMARK   61  A    between atoms: _163  and  _165
REMARK   62  A    between atoms: _165  and  _166
REMARK   63  A    between atoms: _165  and  _168
REMARK   64  A    between atoms: _168  and  _169
REMARK   65  A    between atoms: _169  and  _170
REMARK   66  A    between atoms: _170  and  _171
REMARK   67  A    between atoms: _171  and  _172
REMARK   68  A    between atoms: _176  and  _178
REMARK   69  A    between atoms: _178  and  _179
REMARK   70  A    between atoms: _181  and  _183
REMARK   71  A    between atoms: _183  and  _184
REMARK   72  A    between atoms: _183  and  _186
REMARK   73  A    between atoms: _186  and  _187
REMARK   74  A    between atoms: _187  and  _188
REMARK   75  A    between atoms: _188  and  _189
REMARK   76  A    between atoms: _198  and  _200
REMARK   77  A    between atoms: _200  and  _201
REMARK   78  A    between atoms: _200  and  _203
REMARK   79  A    between atoms: _206  and  _208
REMARK   80  A    between atoms: _208  and  _209
REMARK   81  A    between atoms: _208  and  _211
REMARK   82  A    between atoms: _211  and  _212
REMARK   83  A    between atoms: _212  and  _213
REMARK   84  A    between atoms: _213  and  _214
REMARK   85  A    between atoms: _223  and  _225
REMARK   86  A    between atoms: _225  and  _226
REMARK   87  A    between atoms: _225  and  _228
REMARK   88  A    between atoms: _228  and  _229
REMARK   89  A    between atoms: _232  and  _234
REMARK   90  A    between atoms: _234  and  _235
REMARK   91  A    between atoms: _234  and  _237
REMARK   92  A    between atoms: _237  and  _238
REMARK   93  A    between atoms: _241  and  _243
REMARK   94  A    between atoms: _243  and  _244
REMARK   95  A    between atoms: _243  and  _246
REMARK   96  A    between atoms: _246  and  _247
REMARK   97  A    between atoms: _252  and  _254
REMARK   98  A    between atoms: _254  and  _255
REMARK   99  A    between atoms: _254  and  _257
REMARK  100  A    between atoms: _257  and  _258
REMARK  101  A    between atoms: _268  and  _270
REMARK  102  A    between atoms: _270  and  _271
REMARK  103  A    between atoms: _270  and  _273
REMARK  104  A    between atoms: _276  and  _278
REMARK  105  A    between atoms: _278  and  _279
REMARK  106  A    between atoms: _282  and  _284
REMARK  107  A    between atoms: _284  and  _285
REMARK  108  A    between atoms: _284  and  _287
REMARK  109  A    between atoms: _287  and  _288
REMARK  110  A    between atoms: _291  and  _293
REMARK  111  A    between atoms: _293  and  _294
REMARK  112  A    between atoms: _293  and  _296
REMARK  113  A    between atoms: _296  and  _297
REMARK  114  A    between atoms: _297  and  _298
REMARK  115  A    between atoms: _300  and  _302
REMARK  116  A    between atoms: _302  and  _303
REMARK  117  A    between atoms: _302  and  _305
REMARK  118  A    between atoms: _308  and  _310
REMARK  119  A    between atoms: _310  and  _311
REMARK  120  A    between atoms: _313  and  _315
REMARK  121  A    between atoms: _315  and  _316
REMARK  122  A    between atoms: _315  and  _318
REMARK  123  A    between atoms: _318  and  _319
REMARK  124  A    between atoms: _322  and  _324
REMARK  125  A    between atoms: _324  and  _325
REMARK  126  A    between atoms: _324  and  _327
REMARK  127  A    between atoms: _327  and  _328
REMARK  128  A    between atoms: _334  and  _336
REMARK  129  A    between atoms: _336  and  _337
REMARK  130  A    between atoms: _336  and  _339
REMARK  131  A    between atoms: _339  and  _340
REMARK  132  A    between atoms: _340  and  _341
REMARK  133  A    between atoms: _343  and  _345
REMARK  134  A    between atoms: _345  and  _346
REMARK  135  A    between atoms: _345  and  _348
REMARK  136  A    between atoms: _348  and  _349
REMARK  137  A    between atoms: _349  and  _350
REMARK  138  A    between atoms: _350  and  _351
REMARK  139  A    between atoms: _351  and  _352
REMARK  140  A    between atoms: _356  and  _358
REMARK  141  A    between atoms: _358  and  _359
REMARK  142  A    between atoms: _358  and  _361
REMARK  143  A    between atoms: _361  and  _362
REMARK  144  A    between atoms: _367  and  _368
REMARK  145  A    between atoms: _370  and  _372
REMARK  146  A    between atoms: _372  and  _373
REMARK  147  A    between atoms: _372  and  _375
REMARK  148  A    between atoms: _375  and  _376
REMARK  149  A    between atoms: _386  and  _388
REMARK  150  A    between atoms: _388  and  _389
REMARK  151  A    between atoms: _391  and  _393
REMARK  152  A    between atoms: _393  and  _394
REMARK  153  A    between atoms: _399  and  _400
REMARK  154  A    between atoms: _399  and  _402
REMARK  155  A    between atoms: _402  and  _403
REMARK  156  A    between atoms: _405  and  _407
REMARK  157  A    between atoms: _407  and  _408
REMARK  158  A    between atoms: _407  and  _410
REMARK  159  A    between atoms: _410  and  _411
REMARK  160  A    between atoms: _417  and  _419
REMARK  161  A    between atoms: _419  and  _420
REMARK  162  A    between atoms: _419  and  _422
REMARK  163  A    between atoms: _422  and  _423
REMARK  164  A    between atoms: _426  and  _428
REMARK  165  A    between atoms: _428  and  _429
REMARK  166  A    between atoms: _428  and  _431
REMARK  167  A    between atoms: _431  and  _432
REMARK  168  A    between atoms: _432  and  _433
REMARK  169  A    between atoms: _438  and  _440
REMARK  170  A    between atoms: _440  and  _441
REMARK  171  A    between atoms: _440  and  _443
REMARK  172  A    between atoms: _443  and  _444
REMARK  173  A    between atoms: _444  and  _445
REMARK  174  A    between atoms: _445  and  _446
REMARK  175  A    between atoms: _446  and  _447
REMARK  176  A    between atoms: _451  and  _453
REMARK  177  A    between atoms: _453  and  _454
REMARK  178  A    between atoms: _456  and  _458
REMARK  179  A    between atoms: _458  and  _459
REMARK  180  A    between atoms: _458  and  _461
REMARK  181  A    between atoms: _461  and  _462
REMARK  182  A    between atoms: _465  and  _467
REMARK  183  A    between atoms: _467  and  _468
REMARK  184  A    between atoms: _467  and  _470
REMARK  185  A    between atoms: _470  and  _471
REMARK  186  A    between atoms: _474  and  _476
REMARK  187  A    between atoms: _476  and  _477
REMARK  188  A    between atoms: _476  and  _479
REMARK  189  A    between atoms: _479  and  _480
REMARK  190  A    between atoms: _485  and  _487
REMARK  191  A    between atoms: _487  and  _488
REMARK  192  A    between atoms: _487  and  _490
REMARK  193  A    between atoms: _490  and  _491
REMARK  194  A    between atoms: _491  and  _492
REMARK  195  A    between atoms: _497  and  _499
REMARK  196  A    between atoms: _499  and  _500
REMARK  197  A    between atoms: _499  and  _502
REMARK  198  A    between atoms: _502  and  _503
REMARK  199  A    between atoms: _508  and  _509
REMARK  200  A    between atoms: _511  and  _513
REMARK  201  A    between atoms: _513  and  _514
REMARK  202  A    between atoms: _513  and  _516
REMARK  203  A    between atoms: _516  and  _517
REMARK  204  A    between atoms: _519  and  _521
REMARK  205  A    between atoms: _521  and  _522
REMARK  206  A    between atoms: _521  and  _524
REMARK  207  A    between atoms: _524  and  _525
REMARK  208  A    between atoms: _525  and  _526
REMARK  209  A    between atoms: _526  and  _527
REMARK  210  A    between atoms: _536  and  _538
REMARK  211  A    between atoms: _538  and  _539
REMARK  212  A    between atoms: _538  and  _541
REMARK  213  A    between atoms: _541  and  _542
REMARK  214  A    between atoms: _547  and  _548
REMARK  215  A    between atoms: _550  and  _552
REMARK  216  A    between atoms: _552  and  _553
REMARK  217  A    between atoms: _552  and  _555
REMARK  218  A    between atoms: _555  and  _556
REMARK  219  A    between atoms: _558  and  _560
REMARK  220  A    between atoms: _560  and  _561
REMARK  221  A    between atoms: _560  and  _563
REMARK  222  A    between atoms: _563  and  _564
REMARK  223  A    between atoms: _570  and  _572
REMARK  224  A    between atoms: _572  and  _573
REMARK  225  A    between atoms: _572  and  _575
REMARK  226  A    between atoms: _575  and  _576
REMARK                            x       y       z     vdW  Elec       q    Type
REMARK                         _______ _______ _______ _____ _____    ______ ____
ROOT
ATOM      1  CA  SER A   2      23.798  26.659  50.076  0.00  0.00    +0.178 C 
ENDROOT
BRANCH   1   3
ATOM      2  C   TYR A   1      23.661  24.894  51.715  0.00  0.00    +0.239 C 
ATOM      3  N   SER A   2      24.215  26.030  51.305  0.00  0.00    -0.295 N 
ATOM      4  H   SER A   2      24.961  26.472  51.879  0.00  0.00    +0.150 HD
ATOM      5  O   TYR A   1      22.774  24.304  51.095  0.00  0.00    -0.274 OA
BRANCH   2   6
ATOM      6  CA  TYR A   1      24.176  24.332  53.033  0.00  0.00    +0.149 C 
BRANCH   6   7
ATOM      7  N   TYR A   1      23.100  23.618  53.684  0.00  0.00    -0.238 NA
ATOM      8  H   TYR A   1      22.432  23.105  53.074  0.00  0.00    +0.142 HD
ENDBRANCH   6   7
BRANCH   6   9
ATOM      9  CB  TYR A   1      25.588  23.748  53.013  0.00  0.00    +0.053 C 
BRANCH   9  10
ATOM     10  CG  TYR A   1      25.787  22.582  52.078  0.00  0.00    -0.020 A 
ATOM     11  CD2 TYR A   1      25.610  21.289  52.538  0.00  0.00    -0.001 A 
ATOM     12  CE2 TYR A   1      25.801  20.174  51.695  0.00  0.00    +0.036 A 
ATOM     13  CZ  TYR A   1      26.174  20.395  50.390  0.00  0.00    +0.134 A 
ATOM     14  CE1 TYR A   1      26.357  21.694  49.885  0.00  0.00    +0.036 A 
ATOM     15  CD1 TYR A   1      26.169  22.783  50.741  0.00  0.00    -0.001 A 
BRANCH  13  16
ATOM     16  OH  TYR A   1      26.364  19.319  49.564  0.00  0.00    -0.506 OA
ATOM     17  HH  TYR A   1      27.079  18.743  49.934  0.00  0.00    +0.292 HD
ENDBRANCH  13  16
ENDBRANCH   9  10
ENDBRANCH   6   9
ENDBRANCH   2   6
ENDBRANCH   1   3
BRANCH   1  18
ATOM     18  C   SER A   2      24.930  27.481  49.508  0.00  0.00    +0.243 C 
ATOM     19  O   SER A   2      25.683  28.107  50.253  0.00  0.00    -0.273 OA
ATOM     20  N   PHE A   3      25.053  27.491  48.195  0.00  0.00    -0.298 N 
ATOM     21  H   PHE A   3      24.399  26.937  47.605  0.00  0.00    +0.150 HD
BRANCH  20  22
ATOM     22  CA  PHE A   3      26.103  28.277  47.577  0.00  0.00    +0.141 C 
BRANCH  22  23
ATOM     23  C   PHE A   3      25.481  29.186  46.547  0.00  0.00    +0.227 C 
ATOM     24  O   PHE A   3      24.487  28.824  45.925  0.00  0.00    -0.286 OA
ENDBRANCH  22  23
BRANCH  22  25
ATOM     25  CB  PHE A   3      27.090  27.455  46.721  0.00  0.00    +0.054 C 
BRANCH  25  26
ATOM     26  CG  PHE A   3      28.163  26.740  47.492  0.00  0.00    -0.020 A 
ATOM     27  CD2 PHE A   3      27.937  25.437  47.930  0.00  0.00    -0.004 A 
ATOM     28  CE2 PHE A   3      28.905  24.742  48.649  0.00  0.00    -0.000 A 
ATOM     29  CZ  PHE A   3      30.125  25.353  48.927  0.00  0.00    -0.000 A 
ATOM     30  CE1 PHE A   3      30.369  26.657  48.496  0.00  0.00    -0.000 A 
ATOM     31  CD1 PHE A   3      29.387  27.340  47.782  0.00  0.00    -0.004 A 
ENDBRANCH  25  26
ENDBRANCH  22  25
ENDBRANCH  20  22
ENDBRANCH   1  18
BRANCH   1  32
ATOM     32  CB  SER A   2      22.640  27.588  50.405  0.00  0.00    +0.166 C 
BRANCH  32  33
ATOM     33  OG  SER A   2      22.208  28.295  49.254  0.00  0.00    -0.380 OA
ATOM     34  H   SER A   2      21.911  27.650  48.564  0.00  0.00    +0.211 HD
ENDBRANCH  32  33
ENDBRANCH   1  32
TORSDOF 13
REMARK  Name = ../refined-set-2016/1erb/1erb_pocket.pdb
REMARK  226 active torsions:
REMARK  status: ('A' for Active; 'I' for Inactive)
REMARK    1  A    between atoms: _1  and  _3
REMARK    2  A    between atoms: _3  and  _4
REMARK    3  A    between atoms: _3  and  _6
REMARK    4  A    between atoms: _6  and  _7
REMARK    5  A    between atoms: _13  and  _15
REMARK    6  A    between atoms: _15  and  _16
REMARK    7  A    between atoms: _15  and  _18
REMARK    8  A    between atoms: _18  and  _19
REMARK    9  A    between atoms: _29  and  _31
REMARK   10  A    between atoms: _31  and  _32
REMARK   11  A    between atoms: _36  and  _37
REMARK   12  A    between atoms: _42  and  _44
REMARK   13  A    between atoms: _44  and  _45
REMARK   14  A    between atoms: _47  and  _49
REMARK   15  A    between atoms: _49  and  _50
REMARK   16  A    between atoms: _49  and  _52
REMARK   17  A    between atoms: _52  and  _53
REMARK   18  A    between atoms: _56  and  _58
REMARK   19  A    between atoms: _58  and  _59
REMARK   20  A    between atoms: _58  and  _61
REMARK   21  A    between atoms: _61  and  _62
REMARK   22  A    between atoms: _68  and  _70
REMARK   23  A    between atoms: _70  and  _71
REMARK   24  A    between atoms: _70  and  _73
REMARK   25  A    between atoms: _73  and  _74
REMARK   26  A    between atoms: _77  and  _79
REMARK   27  A    between atoms: _79  and  _80
REMARK   28  A    between atoms: _79  and  _82
REMARK   29  A    between atoms: _82  and  _83
REMARK   30  A    between atoms: _83  and  _84
REMARK   31  A    between atoms: _89  and  _91
REMARK   32  A    between atoms: _91  and  _92
REMARK   33  A    between atoms: _91  and  _94
REMARK   34  A    between atoms: _94  and  _95
REMARK   35  A    between atoms: _98  and  _100
REMARK   36  A    between atoms: _100  and  _101
REMARK   37  A    between atoms: _100  and  _103
REMARK   38  A    between atoms: _106  and  _108
REMARK   39  A    between atoms: _108  and  _109
REMARK   40  A    between atoms: _112  and  _114
REMARK   41  A    between atoms: _114  and  _115
REMARK   42  A    between atoms: _114  and  _117
REMARK   43  A    between atoms: _117  and  _118
REMARK   44  A    between atoms: _118  and  _119
REMARK   45  A    between atoms: _122  and  _124
REMARK   46  A    between atoms: _124  and  _125
REMARK   47  A    between atoms: _124  and  _127
REMARK   48  A    between atoms: _127  and  _128
REMARK   49  A    between atoms: _134  and  _136
REMARK   50  A    between atoms: _136  and  _137
REMARK   51  A    between atoms: _136  and  _139
REMARK   52  A    between atoms: _139  and  _140
REMARK   53  A    between atoms: _142  and  _144
REMARK   54  A    between atoms: _144  and  _145
REMARK   55  A    between atoms: _148  and  _150
REMARK   56  A    between atoms: _150  and  _151
REMARK   57  A    between atoms: _150  and  _153
REMARK   58  A    between atoms: _153  and  _154
REMARK   59  A    between atoms: _157  and  _159
REMARK   60  A    between atoms: _159  and  _160
REMARK   61  A    between atoms: _163  and  _165
REMARK   62  A    between atoms: _165  and  _166
REMARK   63  A    between atoms: _165  and  _168
REMARK   64  A    between atoms: _168  and  _169
REMARK   65  A    between atoms: _169  and  _170
REMARK   66  A    between atoms: _170  and  _171
REMARK   67  A    between atoms: _171  and  _172
REMARK   68  A    between atoms: _176  and  _178
REMARK   69  A    between atoms: _178  and  _179
REMARK   70  A    between atoms: _181  and  _183
REMARK   71  A    between atoms: _183  and  _184
REMARK   72  A    between atoms: _183  and  _186
REMARK   73  A    between atoms: _186  and  _187
REMARK   74  A    between atoms: _187  and  _188
REMARK   75  A    between atoms: _188  and  _189
REMARK   76  A    between atoms: _198  and  _200
REMARK   77  A    between atoms: _200  and  _201
REMARK   78  A    between atoms: _200  and  _203
REMARK   79  A    between atoms: _206  and  _208
REMARK   80  A    between atoms: _208  and  _209
REMARK   81  A    between atoms: _208  and  _211
REMARK   82  A    between atoms: _211  and  _212
REMARK   83  A    between atoms: _212  and  _213
REMARK   84  A    between atoms: _213  and  _214
REMARK   85  A    between atoms: _223  and  _225
REMARK   86  A    between atoms: _225  and  _226
REMARK   87  A    between atoms: _225  and  _228
REMARK   88  A    between atoms: _228  and  _229
REMARK   89  A    between atoms: _232  and  _234
REMARK   90  A    between atoms: _234  and  _235
REMARK   91  A    between atoms: _234  and  _237
REMARK   92  A    between atoms: _237  and  _238
REMARK   93  A    between atoms: _241  and  _243
REMARK   94  A    between atoms: _243  and  _244
REMARK   95  A    between atoms: _243  and  _246
REMARK   96  A    between atoms: _246  and  _247
REMARK   97  A    between atoms: _252  and  _254
REMARK   98  A    between atoms: _254  and  _255
REMARK   99  A    between atoms: _254  and  _257
REMARK  100  A    between atoms: _257  and  _258
REMARK  101  A    between atoms: _268  and  _270
REMARK  102  A    between atoms: _270  and  _271
REMARK  103  A    between atoms: _270  and  _273
REMARK  104  A    between atoms: _276  and  _278
REMARK  105  A    between atoms: _278  and  _279
REMARK  106  A    between atoms: _282  and  _284
REMARK  107  A    between atoms: _284  and  _285
REMARK  108  A    between atoms: _284  and  _287
REMARK  109  A    between atoms: _287  and  _288
REMARK  110  A    between atoms: _291  and  _293
REMARK  111  A    between atoms: _293  and  _294
REMARK  112  A    between atoms: _293  and  _296
REMARK  113  A    between atoms: _296  and  _297
REMARK  114  A    between atoms: _297  and  _298
REMARK  115  A    between atoms: _300  and  _302
REMARK  116  A    between atoms: _302  and  _303
REMARK  117  A    between atoms: _302  and  _305
REMARK  118  A    between atoms: _308  and  _310
REMARK  119  A    between atoms: _310  and  _311
REMARK  120  A    between atoms: _313  and  _315
REMARK  121  A    between atoms: _315  and  _316
REMARK  122  A    between atoms: _315  and  _318
REMARK  123  A    between atoms: _318  and  _319
REMARK  124  A    between atoms: _322  and  _324
REMARK  125  A    between atoms: _324  and  _325
REMARK  126  A    between atoms: _324  and  _327
REMARK  127  A    between atoms: _327  and  _328
REMARK  128  A    between atoms: _334  and  _336
REMARK  129  A    between atoms: _336  and  _337
REMARK  130  A    between atoms: _336  and  _339
REMARK  131  A    between atoms: _339  and  _340
REMARK  132  A    between atoms: _340  and  _341
REMARK  133  A    between atoms: _343  and  _345
REMARK  134  A    between atoms: _345  and  _346
REMARK  135  A    between atoms: _345  and  _348
REMARK  136  A    between atoms: _348  and  _349
REMARK  137  A    between atoms: _349  and  _350
REMARK  138  A    between atoms: _350  and  _351
REMARK  139  A    between atoms: _351  and  _352
REMARK  140  A    between atoms: _356  and  _358
REMARK  141  A    between atoms: _358  and  _359
REMARK  142  A    between atoms: _358  and  _361
REMARK  143  A    between atoms: _361  and  _362
REMARK  144  A    between atoms: _367  and  _368
REMARK  145  A    between atoms: _370  and  _372
REMARK  146  A    between atoms: _372  and  _373
REMARK  147  A    between atoms: _372  and  _375
REMARK  148  A    between atoms: _375  and  _376
REMARK  149  A    between atoms: _386  and  _388
REMARK  150  A    between atoms: _388  and  _389
REMARK  151  A    between atoms: _391  and  _393
REMARK  152  A    between atoms: _393  and  _394
REMARK  153  A    between atoms: _399  and  _400
REMARK  154  A    between atoms: _399  and  _402
REMARK  155  A    between atoms: _402  and  _403
REMARK  156  A    between atoms: _405  and  _407
REMARK  157  A    between atoms: _407  and  _408
REMARK  158  A    between atoms: _407  and  _410
REMARK  159  A    between atoms: _410  and  _411
REMARK  160  A    between atoms: _417  and  _419
REMARK  161  A    between atoms: _419  and  _420
REMARK  162  A    between atoms: _419  and  _422
REMARK  163  A    between atoms: _422  and  _423
REMARK  164  A    between atoms: _426  and  _428
REMARK  165  A    between atoms: _428  and  _429
REMARK  166  A    between atoms: _428  and  _431
REMARK  167  A    between atoms: _431  and  _432
REMARK  168  A    between atoms: _432  and  _433
REMARK  169  A    between atoms: _438  and  _440
REMARK  170  A    between atoms: _440  and  _441
REMARK  171  A    between atoms: _440  and  _443
REMARK  172  A    between atoms: _443  and  _444
REMARK  173  A    between atoms: _444  and  _445
REMARK  174  A    between atoms: _445  and  _446
REMARK  175  A    between atoms: _446  and  _447
REMARK  176  A    between atoms: _451  and  _453
REMARK  177  A    between atoms: _453  and  _454
REMARK  178  A    between atoms: _456  and  _458
REMARK  179  A    between atoms: _458  and  _459
REMARK  180  A    between atoms: _458  and  _461
REMARK  181  A    between atoms: _461  and  _462
REMARK  182  A    between atoms: _465  and  _467
REMARK  183  A    between atoms: _467  and  _468
REMARK  184  A    between atoms: _467  and  _470
REMARK  185  A    between atoms: _470  and  _471
REMARK  186  A    between atoms: _474  and  _476
REMARK  187  A    between atoms: _476  and  _477
REMARK  188  A    between atoms: _476  and  _479
REMARK  189  A    between atoms: _479  and  _480
REMARK  190  A    between atoms: _485  and  _487
REMARK  191  A    between atoms: _487  and  _488
REMARK  192  A    between atoms: _487  and  _490
REMARK  193  A    between atoms: _490  and  _491
REMARK  194  A    between atoms: _491  and  _492
REMARK  195  A    between atoms: _497  and  _499
REMARK  196  A    between atoms: _499  and  _500
REMARK  197  A    between atoms: _499  and  _502
REMARK  198  A    between atoms: _502  and  _503
REMARK  199  A    between atoms: _508  and  _509
REMARK  200  A    between atoms: _511  and  _513
REMARK  201  A    between atoms: _513  and  _514
REMARK  202  A    between atoms: _513  and  _516
REMARK  203  A    between atoms: _516  and  _517
REMARK  204  A    between atoms: _519  and  _521
REMARK  205  A    between atoms: _521  and  _522
REMARK  206  A    between atoms: _521  and  _524
REMARK  207  A    between atoms: _524  and  _525
REMARK  208  A    between atoms: _525  and  _526
REMARK  209  A    between atoms: _526  and  _527
REMARK  210  A    between atoms: _536  and  _538
REMARK  211  A    between atoms: _538  and  _539
REMARK  212  A    between atoms: _538  and  _541
REMARK  213  A    between atoms: _541  and  _542
REMARK  214  A    between atoms: _547  and  _548
REMARK  215  A    between atoms: _550  and  _552
REMARK  216  A    between atoms: _552  and  _553
REMARK  217  A    between atoms: _552  and  _555
REMARK  218  A    between atoms: _555  and  _556
REMARK  219  A    between atoms: _558  and  _560
REMARK  220  A    between atoms: _560  and  _561
REMARK  221  A    between atoms: _560  and  _563
REMARK  222  A    between atoms: _563  and  _564
REMARK  223  A    between atoms: _570  and  _572
REMARK  224  A    between atoms: _572  and  _573
REMARK  225  A    between atoms: _572  and  _575
REMARK  226  A    between atoms: _575  and  _576
REMARK                            x       y       z     vdW  Elec       q    Type
REMARK                         _______ _______ _______ _____ _____    ______ ____
ROOT
ATOM      1  CB  PHE A   1      27.786  29.674  41.514  0.00  0.00    +0.051 C 
ENDROOT
BRANCH   1   2
ATOM      2  CG  PHE A   1      28.144  28.448  42.304  0.00  0.00    -0.020 A 
ATOM      3  CD2 PHE A   1      29.448  28.214  42.745  0.00  0.00    -0.004 A 
ATOM      4  CE2 PHE A   1      29.757  27.062  43.477  0.00  0.00    -0.000 A 
ATOM      5  CZ  PHE A   1      28.750  26.146  43.781  0.00  0.00    -0.000 A 
ATOM      6  CE1 PHE A   1      27.441  26.375  43.348  0.00  0.00    -0.000 A 
ATOM      7  CD1 PHE A   1      27.148  27.522  42.609  0.00  0.00    -0.004 A 
ENDBRANCH   1   2
BRANCH   1   8
ATOM      8  CA  PHE A   1      27.820  30.991  42.309  0.00  0.00    +0.137 C 
BRANCH   8   9
ATOM      9  N   PHE A   1      26.734  31.041  43.265  0.00  0.00    -0.239 NA
ATOM     10  H   PHE A   1      25.768  30.821  42.949  0.00  0.00    +0.142 HD
ENDBRANCH   8   9
BRANCH   8  11
ATOM     11  C   PHE A   1      27.691  32.079  41.279  0.00  0.00    +0.224 C 
ATOM     12  O   PHE A   1      26.605  32.547  40.999  0.00  0.00    -0.287 OA
ENDBRANCH   8  11
ENDBRANCH   1   8
TORSDOF 4
REMARK  Name = ../refined-set-2016/1erb/1erb_pocket.pdb
REMARK  226 active torsions:
REMARK  status: ('A' for Active; 'I' for Inactive)
REMARK    1  A    between atoms: _1  and  _3
REMARK    2  A    between atoms: _3  and  _4
REMARK    3  A    between atoms: _3  and  _6
REMARK    4  A    between atoms: _6  and  _7
REMARK    5  A    between atoms: _13  and  _15
REMARK    6  A    between atoms: _15  and  _16
REMARK    7  A    between atoms: _15  and  _18
REMARK    8  A    between atoms: _18  and  _19
REMARK    9  A    between atoms: _29  and  _31
REMARK   10  A    between atoms: _31  and  _32
REMARK   11  A    between atoms: _36  and  _37
REMARK   12  A    between atoms: _42  and  _44
REMARK   13  A    between atoms: _44  and  _45
REMARK   14  A    between atoms: _47  and  _49
REMARK   15  A    between atoms: _49  and  _50
REMARK   16  A    between atoms: _49  and  _52
REMARK   17  A    between atoms: _52  and  _53
REMARK   18  A    between atoms: _56  and  _58
REMARK   19  A    between atoms: _58  and  _59
REMARK   20  A    between atoms: _58  and  _61
REMARK   21  A    between atoms: _61  and  _62
REMARK   22  A    between atoms: _68  and  _70
REMARK   23  A    between atoms: _70  and  _71
REMARK   24  A    between atoms: _70  and  _73
REMARK   25  A    between atoms: _73  and  _74
REMARK   26  A    between atoms: _77  and  _79
REMARK   27  A    between atoms: _79  and  _80
REMARK   28  A    between atoms: _79  and  _82
REMARK   29  A    between atoms: _82  and  _83
REMARK   30  A    between atoms: _83  and  _84
REMARK   31  A    between atoms: _89  and  _91
REMARK   32  A    between atoms: _91  and  _92
REMARK   33  A    between atoms: _91  and  _94
REMARK   34  A    between atoms: _94  and  _95
REMARK   35  A    between atoms: _98  and  _100
REMARK   36  A    between atoms: _100  and  _101
REMARK   37  A    between atoms: _100  and  _103
REMARK   38  A    between atoms: _106  and  _108
REMARK   39  A    between atoms: _108  and  _109
REMARK   40  A    between atoms: _112  and  _114
REMARK   41  A    between atoms: _114  and  _115
REMARK   42  A    between atoms: _114  and  _117
REMARK   43  A    between atoms: _117  and  _118
REMARK   44  A    between atoms: _118  and  _119
REMARK   45  A    between atoms: _122  and  _124
REMARK   46  A    between atoms: _124  and  _125
REMARK   47  A    between atoms: _124  and  _127
REMARK   48  A    between atoms: _127  and  _128
REMARK   49  A    between atoms: _134  and  _136
REMARK   50  A    between atoms: _136  and  _137
REMARK   51  A    between atoms: _136  and  _139
REMARK   52  A    between atoms: _139  and  _140
REMARK   53  A    between atoms: _142  and  _144
REMARK   54  A    between atoms: _144  and  _145
REMARK   55  A    between atoms: _148  and  _150
REMARK   56  A    between atoms: _150  and  _151
REMARK   57  A    between atoms: _150  and  _153
REMARK   58  A    between atoms: _153  and  _154
REMARK   59  A    between atoms: _157  and  _159
REMARK   60  A    between atoms: _159  and  _160
REMARK   61  A    between atoms: _163  and  _165
REMARK   62  A    between atoms: _165  and  _166
REMARK   63  A    between atoms: _165  and  _168
REMARK   64  A    between atoms: _168  and  _169
REMARK   65  A    between atoms: _169  and  _170
REMARK   66  A    between atoms: _170  and  _171
REMARK   67  A    between atoms: _171  and  _172
REMARK   68  A    between atoms: _176  and  _178
REMARK   69  A    between atoms: _178  and  _179
REMARK   70  A    between atoms: _181  and  _183
REMARK   71  A    between atoms: _183  and  _184
REMARK   72  A    between atoms: _183  and  _186
REMARK   73  A    between atoms: _186  and  _187
REMARK   74  A    between atoms: _187  and  _188
REMARK   75  A    between atoms: _188  and  _189
REMARK   76  A    between atoms: _198  and  _200
REMARK   77  A    between atoms: _200  and  _201
REMARK   78  A    between atoms: _200  and  _203
REMARK   79  A    between atoms: _206  and  _208
REMARK   80  A    between atoms: _208  and  _209
REMARK   81  A    between atoms: _208  and  _211
REMARK   82  A    between atoms: _211  and  _212
REMARK   83  A    between atoms: _212  and  _213
REMARK   84  A    between atoms: _213  and  _214
REMARK   85  A    between atoms: _223  and  _225
REMARK   86  A    between atoms: _225  and  _226
REMARK   87  A    between atoms: _225  and  _228
REMARK   88  A    between atoms: _228  and  _229
REMARK   89  A    between atoms: _232  and  _234
REMARK   90  A    between atoms: _234  and  _235
REMARK   91  A    between atoms: _234  and  _237
REMARK   92  A    between atoms: _237  and  _238
REMARK   93  A    between atoms: _241  and  _243
REMARK   94  A    between atoms: _243  and  _244
REMARK   95  A    between atoms: _243  and  _246
REMARK   96  A    between atoms: _246  and  _247
REMARK   97  A    between atoms: _252  and  _254
REMARK   98  A    between atoms: _254  and  _255
REMARK   99  A    between atoms: _254  and  _257
REMARK  100  A    between atoms: _257  and  _258
REMARK  101  A    between atoms: _268  and  _270
REMARK  102  A    between atoms: _270  and  _271
REMARK  103  A    between atoms: _270  and  _273
REMARK  104  A    between atoms: _276  and  _278
REMARK  105  A    between atoms: _278  and  _279
REMARK  106  A    between atoms: _282  and  _284
REMARK  107  A    between atoms: _284  and  _285
REMARK  108  A    between atoms: _284  and  _287
REMARK  109  A    between atoms: _287  and  _288
REMARK  110  A    between atoms: _291  and  _293
REMARK  111  A    between atoms: _293  and  _294
REMARK  112  A    between atoms: _293  and  _296
REMARK  113  A    between atoms: _296  and  _297
REMARK  114  A    between atoms: _297  and  _298
REMARK  115  A    between atoms: _300  and  _302
REMARK  116  A    between atoms: _302  and  _303
REMARK  117  A    between atoms: _302  and  _305
REMARK  118  A    between atoms: _308  and  _310
REMARK  119  A    between atoms: _310  and  _311
REMARK  120  A    between atoms: _313  and  _315
REMARK  121  A    between atoms: _315  and  _316
REMARK  122  A    between atoms: _315  and  _318
REMARK  123  A    between atoms: _318  and  _319
REMARK  124  A    between atoms: _322  and  _324
REMARK  125  A    between atoms: _324  and  _325
REMARK  126  A    between atoms: _324  and  _327
REMARK  127  A    between atoms: _327  and  _328
REMARK  128  A    between atoms: _334  and  _336
REMARK  129  A    between atoms: _336  and  _337
REMARK  130  A    between atoms: _336  and  _339
REMARK  131  A    between atoms: _339  and  _340
REMARK  132  A    between atoms: _340  and  _341
REMARK  133  A    between atoms: _343  and  _345
REMARK  134  A    between atoms: _345  and  _346
REMARK  135  A    between atoms: _345  and  _348
REMARK  136  A    between atoms: _348  and  _349
REMARK  137  A    between atoms: _349  and  _350
REMARK  138  A    between atoms: _350  and  _351
REMARK  139  A    between atoms: _351  and  _352
REMARK  140  A    between atoms: _356  and  _358
REMARK  141  A    between atoms: _358  and  _359
REMARK  142  A    between atoms: _358  and  _361
REMARK  143  A    between atoms: _361  and  _362
REMARK  144  A    between atoms: _367  and  _368
REMARK  145  A    between atoms: _370  and  _372
REMARK  146  A    between atoms: _372  and  _373
REMARK  147  A    between atoms: _372  and  _375
REMARK  148  A    between atoms: _375  and  _376
REMARK  149  A    between atoms: _386  and  _388
REMARK  150  A    between atoms: _388  and  _389
REMARK  151  A    between atoms: _391  and  _393
REMARK  152  A    between atoms: _393  and  _394
REMARK  153  A    between atoms: _399  and  _400
REMARK  154  A    between atoms: _399  and  _402
REMARK  155  A    between atoms: _402  and  _403
REMARK  156  A    between atoms: _405  and  _407
REMARK  157  A    between atoms: _407  and  _408
REMARK  158  A    between atoms: _407  and  _410
REMARK  159  A    between atoms: _410  and  _411
REMARK  160  A    between atoms: _417  and  _419
REMARK  161  A    between atoms: _419  and  _420
REMARK  162  A    between atoms: _419  and  _422
REMARK  163  A    between atoms: _422  and  _423
REMARK  164  A    between atoms: _426  and  _428
REMARK  165  A    between atoms: _428  and  _429
REMARK  166  A    between atoms: _428  and  _431
REMARK  167  A    between atoms: _431  and  _432
REMARK  168  A    between atoms: _432  and  _433
REMARK  169  A    between atoms: _438  and  _440
REMARK  170  A    between atoms: _440  and  _441
REMARK  171  A    between atoms: _440  and  _443
REMARK  172  A    between atoms: _443  and  _444
REMARK  173  A    between atoms: _444  and  _445
REMARK  174  A    between atoms: _445  and  _446
REMARK  175  A    between atoms: _446  and  _447
REMARK  176  A    between atoms: _451  and  _453
REMARK  177  A    between atoms: _453  and  _454
REMARK  178  A    between atoms: _456  and  _458
REMARK  179  A    between atoms: _458  and  _459
REMARK  180  A    between atoms: _458  and  _461
REMARK  181  A    between atoms: _461  and  _462
REMARK  182  A    between atoms: _465  and  _467
REMARK  183  A    between atoms: _467  and  _468
REMARK  184  A    between atoms: _467  and  _470
REMARK  185  A    between atoms: _470  and  _471
REMARK  186  A    between atoms: _474  and  _476
REMARK  187  A    between atoms: _476  and  _477
REMARK  188  A    between atoms: _476  and  _479
REMARK  189  A    between atoms: _479  and  _480
REMARK  190  A    between atoms: _485  and  _487
REMARK  191  A    between atoms: _487  and  _488
REMARK  192  A    between atoms: _487  and  _490
REMARK  193  A    between atoms: _490  and  _491
REMARK  194  A    between atoms: _491  and  _492
REMARK  195  A    between atoms: _497  and  _499
REMARK  196  A    between atoms: _499  and  _500
REMARK  197  A    between atoms: _499  and  _502
REMARK  198  A    between atoms: _502  and  _503
REMARK  199  A    between atoms: _508  and  _509
REMARK  200  A    between atoms: _511  and  _513
REMARK  201  A    between atoms: _513  and  _514
REMARK  202  A    between atoms: _513  and  _516
REMARK  203  A    between atoms: _516  and  _517
REMARK  204  A    between atoms: _519  and  _521
REMARK  205  A    between atoms: _521  and  _522
REMARK  206  A    between atoms: _521  and  _524
REMARK  207  A    between atoms: _524  and  _525
REMARK  208  A    between atoms: _525  and  _526
REMARK  209  A    between atoms: _526  and  _527
REMARK  210  A    between atoms: _536  and  _538
REMARK  211  A    between atoms: _538  and  _539
REMARK  212  A    between atoms: _538  and  _541
REMARK  213  A    between atoms: _541  and  _542
REMARK  214  A    between atoms: _547  and  _548
REMARK  215  A    between atoms: _550  and  _552
REMARK  216  A    between atoms: _552  and  _553
REMARK  217  A    between atoms: _552  and  _555
REMARK  218  A    between atoms: _555  and  _556
REMARK  219  A    between atoms: _558  and  _560
REMARK  220  A    between atoms: _560  and  _561
REMARK  221  A    between atoms: _560  and  _563
REMARK  222  A    between atoms: _563  and  _564
REMARK  223  A    between atoms: _570  and  _572
REMARK  224  A    between atoms: _572  and  _573
REMARK  225  A    between atoms: _572  and  _575
REMARK  226  A    between atoms: _575  and  _576
REMARK                            x       y       z     vdW  Elec       q    Type
REMARK                         _______ _______ _______ _____ _____    ______ ____
ROOT
ATOM      1  O   HOH     1      24.809  19.328  47.100  0.00  0.00    +0.000 OA
ENDROOT
TORSDOF 0
REMARK  Name = ../refined-set-2016/1erb/1erb_pocket.pdb
REMARK  226 active torsions:
REMARK  status: ('A' for Active; 'I' for Inactive)
REMARK    1  A    between atoms: _1  and  _3
REMARK    2  A    between atoms: _3  and  _4
REMARK    3  A    between atoms: _3  and  _6
REMARK    4  A    between atoms: _6  and  _7
REMARK    5  A    between atoms: _13  and  _15
REMARK    6  A    between atoms: _15  and  _16
REMARK    7  A    between atoms: _15  and  _18
REMARK    8  A    between atoms: _18  and  _19
REMARK    9  A    between atoms: _29  and  _31
REMARK   10  A    between atoms: _31  and  _32
REMARK   11  A    between atoms: _36  and  _37
REMARK   12  A    between atoms: _42  and  _44
REMARK   13  A    between atoms: _44  and  _45
REMARK   14  A    between atoms: _47  and  _49
REMARK   15  A    between atoms: _49  and  _50
REMARK   16  A    between atoms: _49  and  _52
REMARK   17  A    between atoms: _52  and  _53
REMARK   18  A    between atoms: _56  and  _58
REMARK   19  A    between atoms: _58  and  _59
REMARK   20  A    between atoms: _58  and  _61
REMARK   21  A    between atoms: _61  and  _62
REMARK   22  A    between atoms: _68  and  _70
REMARK   23  A    between atoms: _70  and  _71
REMARK   24  A    between atoms: _70  and  _73
REMARK   25  A    between atoms: _73  and  _74
REMARK   26  A    between atoms: _77  and  _79
REMARK   27  A    between atoms: _79  and  _80
REMARK   28  A    between atoms: _79  and  _82
REMARK   29  A    between atoms: _82  and  _83
REMARK   30  A    between atoms: _83  and  _84
REMARK   31  A    between atoms: _89  and  _91
REMARK   32  A    between atoms: _91  and  _92
REMARK   33  A    between atoms: _91  and  _94
REMARK   34  A    between atoms: _94  and  _95
REMARK   35  A    between atoms: _98  and  _100
REMARK   36  A    between atoms: _100  and  _101
REMARK   37  A    between atoms: _100  and  _103
REMARK   38  A    between atoms: _106  and  _108
REMARK   39  A    between atoms: _108  and  _109
REMARK   40  A    between atoms: _112  and  _114
REMARK   41  A    between atoms: _114  and  _115
REMARK   42  A    between atoms: _114  and  _117
REMARK   43  A    between atoms: _117  and  _118
REMARK   44  A    between atoms: _118  and  _119
REMARK   45  A    between atoms: _122  and  _124
REMARK   46  A    between atoms: _124  and  _125
REMARK   47  A    between atoms: _124  and  _127
REMARK   48  A    between atoms: _127  and  _128
REMARK   49  A    between atoms: _134  and  _136
REMARK   50  A    between atoms: _136  and  _137
REMARK   51  A    between atoms: _136  and  _139
REMARK   52  A    between atoms: _139  and  _140
REMARK   53  A    between atoms: _142  and  _144
REMARK   54  A    between atoms: _144  and  _145
REMARK   55  A    between atoms: _148  and  _150
REMARK   56  A    between atoms: _150  and  _151
REMARK   57  A    between atoms: _150  and  _153
REMARK   58  A    between atoms: _153  and  _154
REMARK   59  A    between atoms: _157  and  _159
REMARK   60  A    between atoms: _159  and  _160
REMARK   61  A    between atoms: _163  and  _165
REMARK   62  A    between atoms: _165  and  _166
REMARK   63  A    between atoms: _165  and  _168
REMARK   64  A    between atoms: _168  and  _169
REMARK   65  A    between atoms: _169  and  _170
REMARK   66  A    between atoms: _170  and  _171
REMARK   67  A    between atoms: _171  and  _172
REMARK   68  A    between atoms: _176  and  _178
REMARK   69  A    between atoms: _178  and  _179
REMARK   70  A    between atoms: _181  and  _183
REMARK   71  A    between atoms: _183  and  _184
REMARK   72  A    between atoms: _183  and  _186
REMARK   73  A    between atoms: _186  and  _187
REMARK   74  A    between atoms: _187  and  _188
REMARK   75  A    between atoms: _188  and  _189
REMARK   76  A    between atoms: _198  and  _200
REMARK   77  A    between atoms: _200  and  _201
REMARK   78  A    between atoms: _200  and  _203
REMARK   79  A    between atoms: _206  and  _208
REMARK   80  A    between atoms: _208  and  _209
REMARK   81  A    between atoms: _208  and  _211
REMARK   82  A    between atoms: _211  and  _212
REMARK   83  A    between atoms: _212  and  _213
REMARK   84  A    between atoms: _213  and  _214
REMARK   85  A    between atoms: _223  and  _225
REMARK   86  A    between atoms: _225  and  _226
REMARK   87  A    between atoms: _225  and  _228
REMARK   88  A    between atoms: _228  and  _229
REMARK   89  A    between atoms: _232  and  _234
REMARK   90  A    between atoms: _234  and  _235
REMARK   91  A    between atoms: _234  and  _237
REMARK   92  A    between atoms: _237  and  _238
REMARK   93  A    between atoms: _241  and  _243
REMARK   94  A    between atoms: _243  and  _244
REMARK   95  A    between atoms: _243  and  _246
REMARK   96  A    between atoms: _246  and  _247
REMARK   97  A    between atoms: _252  and  _254
REMARK   98  A    between atoms: _254  and  _255
REMARK   99  A    between atoms: _254  and  _257
REMARK  100  A    between atoms: _257  and  _258
REMARK  101  A    between atoms: _268  and  _270
REMARK  102  A    between atoms: _270  and  _271
REMARK  103  A    between atoms: _270  and  _273
REMARK  104  A    between atoms: _276  and  _278
REMARK  105  A    between atoms: _278  and  _279
REMARK  106  A    between atoms: _282  and  _284
REMARK  107  A    between atoms: _284  and  _285
REMARK  108  A    between atoms: _284  and  _287
REMARK  109  A    between atoms: _287  and  _288
REMARK  110  A    between atoms: _291  and  _293
REMARK  111  A    between atoms: _293  and  _294
REMARK  112  A    between atoms: _293  and  _296
REMARK  113  A    between atoms: _296  and  _297
REMARK  114  A    between atoms: _297  and  _298
REMARK  115  A    between atoms: _300  and  _302
REMARK  116  A    between atoms: _302  and  _303
REMARK  117  A    between atoms: _302  and  _305
REMARK  118  A    between atoms: _308  and  _310
REMARK  119  A    between atoms: _310  and  _311
REMARK  120  A    between atoms: _313  and  _315
REMARK  121  A    between atoms: _315  and  _316
REMARK  122  A    between atoms: _315  and  _318
REMARK  123  A    between atoms: _318  and  _319
REMARK  124  A    between atoms: _322  and  _324
REMARK  125  A    between atoms: _324  and  _325
REMARK  126  A    between atoms: _324  and  _327
REMARK  127  A    between atoms: _327  and  _328
REMARK  128  A    between atoms: _334  and  _336
REMARK  129  A    between atoms: _336  and  _337
REMARK  130  A    between atoms: _336  and  _339
REMARK  131  A    between atoms: _339  and  _340
REMARK  132  A    between atoms: _340  and  _341
REMARK  133  A    between atoms: _343  and  _345
REMARK  134  A    between atoms: _345  and  _346
REMARK  135  A    between atoms: _345  and  _348
REMARK  136  A    between atoms: _348  and  _349
REMARK  137  A    between atoms: _349  and  _350
REMARK  138  A    between atoms: _350  and  _351
REMARK  139  A    between atoms: _351  and  _352
REMARK  140  A    between atoms: _356  and  _358
REMARK  141  A    between atoms: _358  and  _359
REMARK  142  A    between atoms: _358  and  _361
REMARK  143  A    between atoms: _361  and  _362
REMARK  144  A    between atoms: _367  and  _368
REMARK  145  A    between atoms: _370  and  _372
REMARK  146  A    between atoms: _372  and  _373
REMARK  147  A    between atoms: _372  and  _375
REMARK  148  A    between atoms: _375  and  _376
REMARK  149  A    between atoms: _386  and  _388
REMARK  150  A    between atoms: _388  and  _389
REMARK  151  A    between atoms: _391  and  _393
REMARK  152  A    between atoms: _393  and  _394
REMARK  153  A    between atoms: _399  and  _400
REMARK  154  A    between atoms: _399  and  _402
REMARK  155  A    between atoms: _402  and  _403
REMARK  156  A    between atoms: _405  and  _407
REMARK  157  A    between atoms: _407  and  _408
REMARK  158  A    between atoms: _407  and  _410
REMARK  159  A    between atoms: _410  and  _411
REMARK  160  A    between atoms: _417  and  _419
REMARK  161  A    between atoms: _419  and  _420
REMARK  162  A    between atoms: _419  and  _422
REMARK  163  A    between atoms: _422  and  _423
REMARK  164  A    between atoms: _426  and  _428
REMARK  165  A    between atoms: _428  and  _429
REMARK  166  A    between atoms: _428  and  _431
REMARK  167  A    between atoms: _431  and  _432
REMARK  168  A    between atoms: _432  and  _433
REMARK  169  A    between atoms: _438  and  _440
REMARK  170  A    between atoms: _440  and  _441
REMARK  171  A    between atoms: _440  and  _443
REMARK  172  A    between atoms: _443  and  _444
REMARK  173  A    between atoms: _444  and  _445
REMARK  174  A    between atoms: _445  and  _446
REMARK  175  A    between atoms: _446  and  _447
REMARK  176  A    between atoms: _451  and  _453
REMARK  177  A    between atoms: _453  and  _454
REMARK  178  A    between atoms: _456  and  _458
REMARK  179  A    between atoms: _458  and  _459
REMARK  180  A    between atoms: _458  and  _461
REMARK  181  A    between atoms: _461  and  _462
REMARK  182  A    between atoms: _465  and  _467
REMARK  183  A    between atoms: _467  and  _468
REMARK  184  A    between atoms: _467  and  _470
REMARK  185  A    between atoms: _470  and  _471
REMARK  186  A    between atoms: _474  and  _476
REMARK  187  A    between atoms: _476  and  _477
REMARK  188  A    between atoms: _476  and  _479
REMARK  189  A    between atoms: _479  and  _480
REMARK  190  A    between atoms: _485  and  _487
REMARK  191  A    between atoms: _487  and  _488
REMARK  192  A    between atoms: _487  and  _490
REMARK  193  A    between atoms: _490  and  _491
REMARK  194  A    between atoms: _491  and  _492
REMARK  195  A    between atoms: _497  and  _499
REMARK  196  A    between atoms: _499  and  _500
REMARK  197  A    between atoms: _499  and  _502
REMARK  198  A    between atoms: _502  and  _503
REMARK  199  A    between atoms: _508  and  _509
REMARK  200  A    between atoms: _511  and  _513
REMARK  201  A    between atoms: _513  and  _514
REMARK  202  A    between atoms: _513  and  _516
REMARK  203  A    between atoms: _516  and  _517
REMARK  204  A    between atoms: _519  and  _521
REMARK  205  A    between atoms: _521  and  _522
REMARK  206  A    between atoms: _521  and  _524
REMARK  207  A    between atoms: _524  and  _525
REMARK  208  A    between atoms: _525  and  _526
REMARK  209  A    between atoms: _526  and  _527
REMARK  210  A    between atoms: _536  and  _538
REMARK  211  A    between atoms: _538  and  _539
REMARK  212  A    between atoms: _538  and  _541
REMARK  213  A    between atoms: _541  and  _542
REMARK  214  A    between atoms: _547  and  _548
REMARK  215  A    between atoms: _550  and  _552
REMARK  216  A    between atoms: _552  and  _553
REMARK  217  A    between atoms: _552  and  _555
REMARK  218  A    between atoms: _555  and  _556
REMARK  219  A    between atoms: _558  and  _560
REMARK  220  A    between atoms: _560  and  _561
REMARK  221  A    between atoms: _560  and  _563
REMARK  222  A    between atoms: _563  and  _564
REMARK  223  A    between atoms: _570  and  _572
REMARK  224  A    between atoms: _572  and  _573
REMARK  225  A    between atoms: _572  and  _575
REMARK  226  A    between atoms: _575  and  _576
REMARK                            x       y       z     vdW  Elec       q    Type
REMARK                         _______ _______ _______ _____ _____    ______ ____
ROOT
ATOM      1  O   HOH     1      37.703  11.262  49.651  0.00  0.00    +0.000 OA
ENDROOT
TORSDOF 0
REMARK  Name = ../refined-set-2016/1erb/1erb_pocket.pdb
REMARK  226 active torsions:
REMARK  status: ('A' for Active; 'I' for Inactive)
REMARK    1  A    between atoms: _1  and  _3
REMARK    2  A    between atoms: _3  and  _4
REMARK    3  A    between atoms: _3  and  _6
REMARK    4  A    between atoms: _6  and  _7
REMARK    5  A    between atoms: _13  and  _15
REMARK    6  A    between atoms: _15  and  _16
REMARK    7  A    between atoms: _15  and  _18
REMARK    8  A    between atoms: _18  and  _19
REMARK    9  A    between atoms: _29  and  _31
REMARK   10  A    between atoms: _31  and  _32
REMARK   11  A    between atoms: _36  and  _37
REMARK   12  A    between atoms: _42  and  _44
REMARK   13  A    between atoms: _44  and  _45
REMARK   14  A    between atoms: _47  and  _49
REMARK   15  A    between atoms: _49  and  _50
REMARK   16  A    between atoms: _49  and  _52
REMARK   17  A    between atoms: _52  and  _53
REMARK   18  A    between atoms: _56  and  _58
REMARK   19  A    between atoms: _58  and  _59
REMARK   20  A    between atoms: _58  and  _61
REMARK   21  A    between atoms: _61  and  _62
REMARK   22  A    between atoms: _68  and  _70
REMARK   23  A    between atoms: _70  and  _71
REMARK   24  A    between atoms: _70  and  _73
REMARK   25  A    between atoms: _73  and  _74
REMARK   26  A    between atoms: _77  and  _79
REMARK   27  A    between atoms: _79  and  _80
REMARK   28  A    between atoms: _79  and  _82
REMARK   29  A    between atoms: _82  and  _83
REMARK   30  A    between atoms: _83  and  _84
REMARK   31  A    between atoms: _89  and  _91
REMARK   32  A    between atoms: _91  and  _92
REMARK   33  A    between atoms: _91  and  _94
REMARK   34  A    between atoms: _94  and  _95
REMARK   35  A    between atoms: _98  and  _100
REMARK   36  A    between atoms: _100  and  _101
REMARK   37  A    between atoms: _100  and  _103
REMARK   38  A    between atoms: _106  and  _108
REMARK   39  A    between atoms: _108  and  _109
REMARK   40  A    between atoms: _112  and  _114
REMARK   41  A    between atoms: _114  and  _115
REMARK   42  A    between atoms: _114  and  _117
REMARK   43  A    between atoms: _117  and  _118
REMARK   44  A    between atoms: _118  and  _119
REMARK   45  A    between atoms: _122  and  _124
REMARK   46  A    between atoms: _124  and  _125
REMARK   47  A    between atoms: _124  and  _127
REMARK   48  A    between atoms: _127  and  _128
REMARK   49  A    between atoms: _134  and  _136
REMARK   50  A    between atoms: _136  and  _137
REMARK   51  A    between atoms: _136  and  _139
REMARK   52  A    between atoms: _139  and  _140
REMARK   53  A    between atoms: _142  and  _144
REMARK   54  A    between atoms: _144  and  _145
REMARK   55  A    between atoms: _148  and  _150
REMARK   56  A    between atoms: _150  and  _151
REMARK   57  A    between atoms: _150  and  _153
REMARK   58  A    between atoms: _153  and  _154
REMARK   59  A    between atoms: _157  and  _159
REMARK   60  A    between atoms: _159  and  _160
REMARK   61  A    between atoms: _163  and  _165
REMARK   62  A    between atoms: _165  and  _166
REMARK   63  A    between atoms: _165  and  _168
REMARK   64  A    between atoms: _168  and  _169
REMARK   65  A    between atoms: _169  and  _170
REMARK   66  A    between atoms: _170  and  _171
REMARK   67  A    between atoms: _171  and  _172
REMARK   68  A    between atoms: _176  and  _178
REMARK   69  A    between atoms: _178  and  _179
REMARK   70  A    between atoms: _181  and  _183
REMARK   71  A    between atoms: _183  and  _184
REMARK   72  A    between atoms: _183  and  _186
REMARK   73  A    between atoms: _186  and  _187
REMARK   74  A    between atoms: _187  and  _188
REMARK   75  A    between atoms: _188  and  _189
REMARK   76  A    between atoms: _198  and  _200
REMARK   77  A    between atoms: _200  and  _201
REMARK   78  A    between atoms: _200  and  _203
REMARK   79  A    between atoms: _206  and  _208
REMARK   80  A    between atoms: _208  and  _209
REMARK   81  A    between atoms: _208  and  _211
REMARK   82  A    between atoms: _211  and  _212
REMARK   83  A    between atoms: _212  and  _213
REMARK   84  A    between atoms: _213  and  _214
REMARK   85  A    between atoms: _223  and  _225
REMARK   86  A    between atoms: _225  and  _226
REMARK   87  A    between atoms: _225  and  _228
REMARK   88  A    between atoms: _228  and  _229
REMARK   89  A    between atoms: _232  and  _234
REMARK   90  A    between atoms: _234  and  _235
REMARK   91  A    between atoms: _234  and  _237
REMARK   92  A    between atoms: _237  and  _238
REMARK   93  A    between atoms: _241  and  _243
REMARK   94  A    between atoms: _243  and  _244
REMARK   95  A    between atoms: _243  and  _246
REMARK   96  A    between atoms: _246  and  _247
REMARK   97  A    between atoms: _252  and  _254
REMARK   98  A    between atoms: _254  and  _255
REMARK   99  A    between atoms: _254  and  _257
REMARK  100  A    between atoms: _257  and  _258
REMARK  101  A    between atoms: _268  and  _270
REMARK  102  A    between atoms: _270  and  _271
REMARK  103  A    between atoms: _270  and  _273
REMARK  104  A    between atoms: _276  and  _278
REMARK  105  A    between atoms: _278  and  _279
REMARK  106  A    between atoms: _282  and  _284
REMARK  107  A    between atoms: _284  and  _285
REMARK  108  A    between atoms: _284  and  _287
REMARK  109  A    between atoms: _287  and  _288
REMARK  110  A    between atoms: _291  and  _293
REMARK  111  A    between atoms: _293  and  _294
REMARK  112  A    between atoms: _293  and  _296
REMARK  113  A    between atoms: _296  and  _297
REMARK  114  A    between atoms: _297  and  _298
REMARK  115  A    between atoms: _300  and  _302
REMARK  116  A    between atoms: _302  and  _303
REMARK  117  A    between atoms: _302  and  _305
REMARK  118  A    between atoms: _308  and  _310
REMARK  119  A    between atoms: _310  and  _311
REMARK  120  A    between atoms: _313  and  _315
REMARK  121  A    between atoms: _315  and  _316
REMARK  122  A    between atoms: _315  and  _318
REMARK  123  A    between atoms: _318  and  _319
REMARK  124  A    between atoms: _322  and  _324
REMARK  125  A    between atoms: _324  and  _325
REMARK  126  A    between atoms: _324  and  _327
REMARK  127  A    between atoms: _327  and  _328
REMARK  128  A    between atoms: _334  and  _336
REMARK  129  A    between atoms: _336  and  _337
REMARK  130  A    between atoms: _336  and  _339
REMARK  131  A    between atoms: _339  and  _340
REMARK  132  A    between atoms: _340  and  _341
REMARK  133  A    between atoms: _343  and  _345
REMARK  134  A    between atoms: _345  and  _346
REMARK  135  A    between atoms: _345  and  _348
REMARK  136  A    between atoms: _348  and  _349
REMARK  137  A    between atoms: _349  and  _350
REMARK  138  A    between atoms: _350  and  _351
REMARK  139  A    between atoms: _351  and  _352
REMARK  140  A    between atoms: _356  and  _358
REMARK  141  A    between atoms: _358  and  _359
REMARK  142  A    between atoms: _358  and  _361
REMARK  143  A    between atoms: _361  and  _362
REMARK  144  A    between atoms: _367  and  _368
REMARK  145  A    between atoms: _370  and  _372
REMARK  146  A    between atoms: _372  and  _373
REMARK  147  A    between atoms: _372  and  _375
REMARK  148  A    between atoms: _375  and  _376
REMARK  149  A    between atoms: _386  and  _388
REMARK  150  A    between atoms: _388  and  _389
REMARK  151  A    between atoms: _391  and  _393
REMARK  152  A    between atoms: _393  and  _394
REMARK  153  A    between atoms: _399  and  _400
REMARK  154  A    between atoms: _399  and  _402
REMARK  155  A    between atoms: _402  and  _403
REMARK  156  A    between atoms: _405  and  _407
REMARK  157  A    between atoms: _407  and  _408
REMARK  158  A    between atoms: _407  and  _410
REMARK  159  A    between atoms: _410  and  _411
REMARK  160  A    between atoms: _417  and  _419
REMARK  161  A    between atoms: _419  and  _420
REMARK  162  A    between atoms: _419  and  _422
REMARK  163  A    between atoms: _422  and  _423
REMARK  164  A    between atoms: _426  and  _428
REMARK  165  A    between atoms: _428  and  _429
REMARK  166  A    between atoms: _428  and  _431
REMARK  167  A    between atoms: _431  and  _432
REMARK  168  A    between atoms: _432  and  _433
REMARK  169  A    between atoms: _438  and  _440
REMARK  170  A    between atoms: _440  and  _441
REMARK  171  A    between atoms: _440  and  _443
REMARK  172  A    between atoms: _443  and  _444
REMARK  173  A    between atoms: _444  and  _445
REMARK  174  A    between atoms: _445  and  _446
REMARK  175  A    between atoms: _446  and  _447
REMARK  176  A    between atoms: _451  and  _453
REMARK  177  A    between atoms: _453  and  _454
REMARK  178  A    between atoms: _456  and  _458
REMARK  179  A    between atoms: _458  and  _459
REMARK  180  A    between atoms: _458  and  _461
REMARK  181  A    between atoms: _461  and  _462
REMARK  182  A    between atoms: _465  and  _467
REMARK  183  A    between atoms: _467  and  _468
REMARK  184  A    between atoms: _467  and  _470
REMARK  185  A    between atoms: _470  and  _471
REMARK  186  A    between atoms: _474  and  _476
REMARK  187  A    between atoms: _476  and  _477
REMARK  188  A    between atoms: _476  and  _479
REMARK  189  A    between atoms: _479  and  _480
REMARK  190  A    between atoms: _485  and  _487
REMARK  191  A    between atoms: _487  and  _488
REMARK  192  A    between atoms: _487  and  _490
REMARK  193  A    between atoms: _490  and  _491
REMARK  194  A    between atoms: _491  and  _492
REMARK  195  A    between atoms: _497  and  _499
REMARK  196  A    between atoms: _499  and  _500
REMARK  197  A    between atoms: _499  and  _502
REMARK  198  A    between atoms: _502  and  _503
REMARK  199  A    between atoms: _508  and  _509
REMARK  200  A    between atoms: _511  and  _513
REMARK  201  A    between atoms: _513  and  _514
REMARK  202  A    between atoms: _513  and  _516
REMARK  203  A    between atoms: _516  and  _517
REMARK  204  A    between atoms: _519  and  _521
REMARK  205  A    between atoms: _521  and  _522
REMARK  206  A    between atoms: _521  and  _524
REMARK  207  A    between atoms: _524  and  _525
REMARK  208  A    between atoms: _525  and  _526
REMARK  209  A    between atoms: _526  and  _527
REMARK  210  A    between atoms: _536  and  _538
REMARK  211  A    between atoms: _538  and  _539
REMARK  212  A    between atoms: _538  and  _541
REMARK  213  A    between atoms: _541  and  _542
REMARK  214  A    between atoms: _547  and  _548
REMARK  215  A    between atoms: _550  and  _552
REMARK  216  A    between atoms: _552  and  _553
REMARK  217  A    between atoms: _552  and  _555
REMARK  218  A    between atoms: _555  and  _556
REMARK  219  A    between atoms: _558  and  _560
REMARK  220  A    between atoms: _560  and  _561
REMARK  221  A    between atoms: _560  and  _563
REMARK  222  A    between atoms: _563  and  _564
REMARK  223  A    between atoms: _570  and  _572
REMARK  224  A    between atoms: _572  and  _573
REMARK  225  A    between atoms: _572  and  _575
REMARK  226  A    between atoms: _575  and  _576
REMARK                            x       y       z     vdW  Elec       q    Type
REMARK                         _______ _______ _______ _____ _____    ______ ____
ROOT
ATOM      1  O   HOH     1      30.437  18.749  56.719  0.00  0.00    +0.000 OA
ENDROOT
TORSDOF 0
