REMARK  Name = ../refined-set-2016/5cs3/5cs3_pocket.pdb
REMARK  104 active torsions:
REMARK  status: ('A' for Active; 'I' for Inactive)
REMARK    1  A    between atoms: _1  and  _3
REMARK    2  A    between atoms: _3  and  _4
REMARK    3  A    between atoms: _3  and  _6
REMARK    4  A    between atoms: _6  and  _7
REMARK    5  A    between atoms: _7  and  _8
REMARK    6  A    between atoms: _8  and  _9
REMARK    7  A    between atoms: _9  and  _10
REMARK    8  A    between atoms: _14  and  _16
REMARK    9  A    between atoms: _16  and  _17
REMARK   10  A    between atoms: _16  and  _19
REMARK   11  A    between atoms: _19  and  _20
REMARK   12  A    between atoms: _30  and  _32
REMARK   13  A    between atoms: _32  and  _33
REMARK   14  A    between atoms: _32  and  _35
REMARK   15  A    between atoms: _35  and  _36
REMARK   16  A    between atoms: _41  and  _43
REMARK   17  A    between atoms: _43  and  _44
REMARK   18  A    between atoms: _43  and  _46
REMARK   19  A    between atoms: _46  and  _47
REMARK   20  A    between atoms: _47  and  _48
REMARK   21  A    between atoms: _51  and  _53
REMARK   22  A    between atoms: _53  and  _54
REMARK   23  A    between atoms: _53  and  _56
REMARK   24  A    between atoms: _56  and  _57
REMARK   25  A    between atoms: _62  and  _64
REMARK   26  A    between atoms: _64  and  _65
REMARK   27  A    between atoms: _64  and  _67
REMARK   28  A    between atoms: _67  and  _68
REMARK   29  A    between atoms: _70  and  _72
REMARK   30  A    between atoms: _72  and  _73
REMARK   31  A    between atoms: _72  and  _75
REMARK   32  A    between atoms: _75  and  _76
REMARK   33  A    between atoms: _82  and  _84
REMARK   34  A    between atoms: _84  and  _85
REMARK   35  A    between atoms: _84  and  _87
REMARK   36  A    between atoms: _87  and  _88
REMARK   37  A    between atoms: _93  and  _94
REMARK   38  A    between atoms: _96  and  _98
REMARK   39  A    between atoms: _98  and  _99
REMARK   40  A    between atoms: _98  and  _101
REMARK   41  A    between atoms: _101  and  _102
REMARK   42  A    between atoms: _102  and  _103
REMARK   43  A    between atoms: _103  and  _104
REMARK   44  A    between atoms: _113  and  _115
REMARK   45  A    between atoms: _115  and  _116
REMARK   46  A    between atoms: _115  and  _118
REMARK   47  A    between atoms: _118  and  _119
REMARK   48  A    between atoms: _125  and  _126
REMARK   49  A    between atoms: _131  and  _133
REMARK   50  A    between atoms: _133  and  _134
REMARK   51  A    between atoms: _133  and  _136
REMARK   52  A    between atoms: _136  and  _137
REMARK   53  A    between atoms: _137  and  _138
REMARK   54  A    between atoms: _138  and  _139
REMARK   55  A    between atoms: _148  and  _150
REMARK   56  A    between atoms: _150  and  _151
REMARK   57  A    between atoms: _153  and  _155
REMARK   58  A    between atoms: _155  and  _156
REMARK   59  A    between atoms: _155  and  _158
REMARK   60  A    between atoms: _158  and  _159
REMARK   61  A    between atoms: _159  and  _160
REMARK   62  A    between atoms: _163  and  _165
REMARK   63  A    between atoms: _165  and  _166
REMARK   64  A    between atoms: _165  and  _168
REMARK   65  A    between atoms: _168  and  _169
REMARK   66  A    between atoms: _169  and  _170
REMARK   67  A    between atoms: _173  and  _175
REMARK   68  A    between atoms: _175  and  _176
REMARK   69  A    between atoms: _178  and  _180
REMARK   70  A    between atoms: _180  and  _181
REMARK   71  A    between atoms: _184  and  _185
REMARK   72  A    between atoms: _190  and  _192
REMARK   73  A    between atoms: _192  and  _193
REMARK   74  A    between atoms: _192  and  _195
REMARK   75  A    between atoms: _195  and  _196
REMARK   76  A    between atoms: _206  and  _208
REMARK   77  A    between atoms: _208  and  _209
REMARK   78  A    between atoms: _208  and  _211
REMARK   79  A    between atoms: _213  and  _215
REMARK   80  A    between atoms: _215  and  _216
REMARK   81  A    between atoms: _215  and  _218
REMARK   82  A    between atoms: _218  and  _219
REMARK   83  A    between atoms: _225  and  _227
REMARK   84  A    between atoms: _227  and  _228
REMARK   85  A    between atoms: _227  and  _230
REMARK   86  A    between atoms: _230  and  _231
REMARK   87  A    between atoms: _231  and  _232
REMARK   88  A    between atoms: _232  and  _233
REMARK   89  A    between atoms: _242  and  _244
REMARK   90  A    between atoms: _244  and  _245
REMARK   91  A    between atoms: _244  and  _247
REMARK   92  A    between atoms: _247  and  _248
REMARK   93  A    between atoms: _253  and  _254
REMARK   94  A    between atoms: _256  and  _258
REMARK   95  A    between atoms: _258  and  _259
REMARK   96  A    between atoms: _258  and  _261
REMARK   97  A    between atoms: _261  and  _262
REMARK   98  A    between atoms: _262  and  _263
REMARK   99  A    between atoms: _266  and  _268
REMARK  100  A    between atoms: _268  and  _269
REMARK  101  A    between atoms: _268  and  _271
REMARK  102  A    between atoms: _274  and  _276
REMARK  103  A    between atoms: _276  and  _277
REMARK  104  A    between atoms: _276  and  _279
REMARK                            x       y       z     vdW  Elec       q    Type
REMARK                         _______ _______ _______ _____ _____    ______ ____
ROOT
ATOM      1  CG  LYS A   1      11.364  28.370  -6.644  0.00  0.00    -0.000 C 
ENDROOT
BRANCH   1   2
ATOM      2  CB  LYS A   1      10.137  29.276  -6.618  0.00  0.00    +0.025 C 
BRANCH   2   3
ATOM      3  CA  LYS A   1      10.247  30.493  -5.723  0.00  0.00    +0.133 C 
BRANCH   3   4
ATOM      4  N   LYS A   1       8.918  31.114  -5.612  0.00  0.00    -0.239 NA
ATOM      5  H   LYS A   1       8.088  30.583  -5.946  0.00  0.00    +0.142 HD
ENDBRANCH   3   4
BRANCH   3   6
ATOM      6  C   LYS A   1      11.384  31.423  -6.244  0.00  0.00    +0.224 C 
ATOM      7  O   LYS A   1      12.491  31.381  -5.732  0.00  0.00    -0.287 OA
ENDBRANCH   3   6
ENDBRANCH   2   3
ENDBRANCH   1   2
BRANCH   1   8
ATOM      8  CD  LYS A   1      11.202  27.296  -7.757  0.00  0.00    -0.024 C 
BRANCH   8   9
ATOM      9  CE  LYS A   1      10.272  27.795  -8.910  0.00  0.00    -0.086 C 
BRANCH   9  10
ATOM     10  NZ  LYS A   1      10.662  27.369 -10.290  0.00  0.00    +0.380 N 
ATOM     11  HZ1 LYS A   1      10.662  26.330 -10.344  0.00  0.00    -0.089 HD
ATOM     12  HZ2 LYS A   1      11.614  27.728 -10.507  0.00  0.00    -0.089 HD
ATOM     13  HZ3 LYS A   1       9.981  27.753 -10.976  0.00  0.00    -0.089 HD
ENDBRANCH   9  10
ENDBRANCH   8   9
ENDBRANCH   1   8
TORSDOF 7
REMARK  Name = ../refined-set-2016/5cs3/5cs3_pocket.pdb
REMARK  104 active torsions:
REMARK  status: ('A' for Active; 'I' for Inactive)
REMARK    1  A    between atoms: _1  and  _3
REMARK    2  A    between atoms: _3  and  _4
REMARK    3  A    between atoms: _3  and  _6
REMARK    4  A    between atoms: _6  and  _7
REMARK    5  A    between atoms: _7  and  _8
REMARK    6  A    between atoms: _8  and  _9
REMARK    7  A    between atoms: _9  and  _10
REMARK    8  A    between atoms: _14  and  _16
REMARK    9  A    between atoms: _16  and  _17
REMARK   10  A    between atoms: _16  and  _19
REMARK   11  A    between atoms: _19  and  _20
REMARK   12  A    between atoms: _30  and  _32
REMARK   13  A    between atoms: _32  and  _33
REMARK   14  A    between atoms: _32  and  _35
REMARK   15  A    between atoms: _35  and  _36
REMARK   16  A    between atoms: _41  and  _43
REMARK   17  A    between atoms: _43  and  _44
REMARK   18  A    between atoms: _43  and  _46
REMARK   19  A    between atoms: _46  and  _47
REMARK   20  A    between atoms: _47  and  _48
REMARK   21  A    between atoms: _51  and  _53
REMARK   22  A    between atoms: _53  and  _54
REMARK   23  A    between atoms: _53  and  _56
REMARK   24  A    between atoms: _56  and  _57
REMARK   25  A    between atoms: _62  and  _64
REMARK   26  A    between atoms: _64  and  _65
REMARK   27  A    between atoms: _64  and  _67
REMARK   28  A    between atoms: _67  and  _68
REMARK   29  A    between atoms: _70  and  _72
REMARK   30  A    between atoms: _72  and  _73
REMARK   31  A    between atoms: _72  and  _75
REMARK   32  A    between atoms: _75  and  _76
REMARK   33  A    between atoms: _82  and  _84
REMARK   34  A    between atoms: _84  and  _85
REMARK   35  A    between atoms: _84  and  _87
REMARK   36  A    between atoms: _87  and  _88
REMARK   37  A    between atoms: _93  and  _94
REMARK   38  A    between atoms: _96  and  _98
REMARK   39  A    between atoms: _98  and  _99
REMARK   40  A    between atoms: _98  and  _101
REMARK   41  A    between atoms: _101  and  _102
REMARK   42  A    between atoms: _102  and  _103
REMARK   43  A    between atoms: _103  and  _104
REMARK   44  A    between atoms: _113  and  _115
REMARK   45  A    between atoms: _115  and  _116
REMARK   46  A    between atoms: _115  and  _118
REMARK   47  A    between atoms: _118  and  _119
REMARK   48  A    between atoms: _125  and  _126
REMARK   49  A    between atoms: _131  and  _133
REMARK   50  A    between atoms: _133  and  _134
REMARK   51  A    between atoms: _133  and  _136
REMARK   52  A    between atoms: _136  and  _137
REMARK   53  A    between atoms: _137  and  _138
REMARK   54  A    between atoms: _138  and  _139
REMARK   55  A    between atoms: _148  and  _150
REMARK   56  A    between atoms: _150  and  _151
REMARK   57  A    between atoms: _153  and  _155
REMARK   58  A    between atoms: _155  and  _156
REMARK   59  A    between atoms: _155  and  _158
REMARK   60  A    between atoms: _158  and  _159
REMARK   61  A    between atoms: _159  and  _160
REMARK   62  A    between atoms: _163  and  _165
REMARK   63  A    between atoms: _165  and  _166
REMARK   64  A    between atoms: _165  and  _168
REMARK   65  A    between atoms: _168  and  _169
REMARK   66  A    between atoms: _169  and  _170
REMARK   67  A    between atoms: _173  and  _175
REMARK   68  A    between atoms: _175  and  _176
REMARK   69  A    between atoms: _178  and  _180
REMARK   70  A    between atoms: _180  and  _181
REMARK   71  A    between atoms: _184  and  _185
REMARK   72  A    between atoms: _190  and  _192
REMARK   73  A    between atoms: _192  and  _193
REMARK   74  A    between atoms: _192  and  _195
REMARK   75  A    between atoms: _195  and  _196
REMARK   76  A    between atoms: _206  and  _208
REMARK   77  A    between atoms: _208  and  _209
REMARK   78  A    between atoms: _208  and  _211
REMARK   79  A    between atoms: _213  and  _215
REMARK   80  A    between atoms: _215  and  _216
REMARK   81  A    between atoms: _215  and  _218
REMARK   82  A    between atoms: _218  and  _219
REMARK   83  A    between atoms: _225  and  _227
REMARK   84  A    between atoms: _227  and  _228
REMARK   85  A    between atoms: _227  and  _230
REMARK   86  A    between atoms: _230  and  _231
REMARK   87  A    between atoms: _231  and  _232
REMARK   88  A    between atoms: _232  and  _233
REMARK   89  A    between atoms: _242  and  _244
REMARK   90  A    between atoms: _244  and  _245
REMARK   91  A    between atoms: _244  and  _247
REMARK   92  A    between atoms: _247  and  _248
REMARK   93  A    between atoms: _253  and  _254
REMARK   94  A    between atoms: _256  and  _258
REMARK   95  A    between atoms: _258  and  _259
REMARK   96  A    between atoms: _258  and  _261
REMARK   97  A    between atoms: _261  and  _262
REMARK   98  A    between atoms: _262  and  _263
REMARK   99  A    between atoms: _266  and  _268
REMARK  100  A    between atoms: _268  and  _269
REMARK  101  A    between atoms: _268  and  _271
REMARK  102  A    between atoms: _274  and  _276
REMARK  103  A    between atoms: _276  and  _277
REMARK  104  A    between atoms: _276  and  _279
REMARK                            x       y       z     vdW  Elec       q    Type
REMARK                         _______ _______ _______ _____ _____    ______ ____
ROOT
ATOM      1  CG  TRP A   1      -5.233  35.172  -2.108  0.00  0.00    -0.002 A 
ATOM      2  CD1 TRP A   1      -4.368  35.196  -1.062  0.00  0.00    +0.068 A 
ATOM      3  NE1 TRP A   1      -3.434  34.185  -1.197  0.00  0.00    -0.352 N 
ATOM      4  HE1 TRP A   1      -2.665  33.978  -0.528  0.00  0.00    +0.166 HD
ATOM      5  CE2 TRP A   1      -3.688  33.501  -2.358  0.00  0.00    +0.056 A 
ATOM      6  CZ2 TRP A   1      -3.024  32.398  -2.923  0.00  0.00    +0.017 A 
ATOM      7  CH2 TRP A   1      -3.498  31.922  -4.110  0.00  0.00    +0.001 A 
ATOM      8  CZ3 TRP A   1      -4.617  32.507  -4.739  0.00  0.00    +0.000 A 
ATOM      9  CE3 TRP A   1      -5.279  33.591  -4.176  0.00  0.00    +0.001 A 
ATOM     10  CD2 TRP A   1      -4.816  34.096  -2.958  0.00  0.00    +0.013 A 
ENDROOT
BRANCH   1  11
ATOM     11  CB  TRP A   1      -6.358  36.120  -2.364  0.00  0.00    +0.053 C 
BRANCH  11  12
ATOM     12  CA  TRP A   1      -5.972  37.299  -3.266  0.00  0.00    +0.137 C 
BRANCH  12  13
ATOM     13  N   TRP A   1      -4.813  38.033  -2.729  0.00  0.00    -0.239 NA
ATOM     14  H   TRP A   1      -4.388  37.738  -1.827  0.00  0.00    +0.142 HD
ENDBRANCH  12  13
BRANCH  12  15
ATOM     15  C   TRP A   1      -7.178  38.234  -3.503  0.00  0.00    +0.224 C 
ATOM     16  O   TRP A   1      -7.951  38.000  -4.436  0.00  0.00    -0.287 OA
ENDBRANCH  12  15
ENDBRANCH  11  12
ENDBRANCH   1  11
TORSDOF 4
REMARK  Name = ../refined-set-2016/5cs3/5cs3_pocket.pdb
REMARK  104 active torsions:
REMARK  status: ('A' for Active; 'I' for Inactive)
REMARK    1  A    between atoms: _1  and  _3
REMARK    2  A    between atoms: _3  and  _4
REMARK    3  A    between atoms: _3  and  _6
REMARK    4  A    between atoms: _6  and  _7
REMARK    5  A    between atoms: _7  and  _8
REMARK    6  A    between atoms: _8  and  _9
REMARK    7  A    between atoms: _9  and  _10
REMARK    8  A    between atoms: _14  and  _16
REMARK    9  A    between atoms: _16  and  _17
REMARK   10  A    between atoms: _16  and  _19
REMARK   11  A    between atoms: _19  and  _20
REMARK   12  A    between atoms: _30  and  _32
REMARK   13  A    between atoms: _32  and  _33
REMARK   14  A    between atoms: _32  and  _35
REMARK   15  A    between atoms: _35  and  _36
REMARK   16  A    between atoms: _41  and  _43
REMARK   17  A    between atoms: _43  and  _44
REMARK   18  A    between atoms: _43  and  _46
REMARK   19  A    between atoms: _46  and  _47
REMARK   20  A    between atoms: _47  and  _48
REMARK   21  A    between atoms: _51  and  _53
REMARK   22  A    between atoms: _53  and  _54
REMARK   23  A    between atoms: _53  and  _56
REMARK   24  A    between atoms: _56  and  _57
REMARK   25  A    between atoms: _62  and  _64
REMARK   26  A    between atoms: _64  and  _65
REMARK   27  A    between atoms: _64  and  _67
REMARK   28  A    between atoms: _67  and  _68
REMARK   29  A    between atoms: _70  and  _72
REMARK   30  A    between atoms: _72  and  _73
REMARK   31  A    between atoms: _72  and  _75
REMARK   32  A    between atoms: _75  and  _76
REMARK   33  A    between atoms: _82  and  _84
REMARK   34  A    between atoms: _84  and  _85
REMARK   35  A    between atoms: _84  and  _87
REMARK   36  A    between atoms: _87  and  _88
REMARK   37  A    between atoms: _93  and  _94
REMARK   38  A    between atoms: _96  and  _98
REMARK   39  A    between atoms: _98  and  _99
REMARK   40  A    between atoms: _98  and  _101
REMARK   41  A    between atoms: _101  and  _102
REMARK   42  A    between atoms: _102  and  _103
REMARK   43  A    between atoms: _103  and  _104
REMARK   44  A    between atoms: _113  and  _115
REMARK   45  A    between atoms: _115  and  _116
REMARK   46  A    between atoms: _115  and  _118
REMARK   47  A    between atoms: _118  and  _119
REMARK   48  A    between atoms: _125  and  _126
REMARK   49  A    between atoms: _131  and  _133
REMARK   50  A    between atoms: _133  and  _134
REMARK   51  A    between atoms: _133  and  _136
REMARK   52  A    between atoms: _136  and  _137
REMARK   53  A    between atoms: _137  and  _138
REMARK   54  A    between atoms: _138  and  _139
REMARK   55  A    between atoms: _148  and  _150
REMARK   56  A    between atoms: _150  and  _151
REMARK   57  A    between atoms: _153  and  _155
REMARK   58  A    between atoms: _155  and  _156
REMARK   59  A    between atoms: _155  and  _158
REMARK   60  A    between atoms: _158  and  _159
REMARK   61  A    between atoms: _159  and  _160
REMARK   62  A    between atoms: _163  and  _165
REMARK   63  A    between atoms: _165  and  _166
REMARK   64  A    between atoms: _165  and  _168
REMARK   65  A    between atoms: _168  and  _169
REMARK   66  A    between atoms: _169  and  _170
REMARK   67  A    between atoms: _173  and  _175
REMARK   68  A    between atoms: _175  and  _176
REMARK   69  A    between atoms: _178  and  _180
REMARK   70  A    between atoms: _180  and  _181
REMARK   71  A    between atoms: _184  and  _185
REMARK   72  A    between atoms: _190  and  _192
REMARK   73  A    between atoms: _192  and  _193
REMARK   74  A    between atoms: _192  and  _195
REMARK   75  A    between atoms: _195  and  _196
REMARK   76  A    between atoms: _206  and  _208
REMARK   77  A    between atoms: _208  and  _209
REMARK   78  A    between atoms: _208  and  _211
REMARK   79  A    between atoms: _213  and  _215
REMARK   80  A    between atoms: _215  and  _216
REMARK   81  A    between atoms: _215  and  _218
REMARK   82  A    between atoms: _218  and  _219
REMARK   83  A    between atoms: _225  and  _227
REMARK   84  A    between atoms: _227  and  _228
REMARK   85  A    between atoms: _227  and  _230
REMARK   86  A    between atoms: _230  and  _231
REMARK   87  A    between atoms: _231  and  _232
REMARK   88  A    between atoms: _232  and  _233
REMARK   89  A    between atoms: _242  and  _244
REMARK   90  A    between atoms: _244  and  _245
REMARK   91  A    between atoms: _244  and  _247
REMARK   92  A    between atoms: _247  and  _248
REMARK   93  A    between atoms: _253  and  _254
REMARK   94  A    between atoms: _256  and  _258
REMARK   95  A    between atoms: _258  and  _259
REMARK   96  A    between atoms: _258  and  _261
REMARK   97  A    between atoms: _261  and  _262
REMARK   98  A    between atoms: _262  and  _263
REMARK   99  A    between atoms: _266  and  _268
REMARK  100  A    between atoms: _268  and  _269
REMARK  101  A    between atoms: _268  and  _271
REMARK  102  A    between atoms: _274  and  _276
REMARK  103  A    between atoms: _276  and  _277
REMARK  104  A    between atoms: _276  and  _279
REMARK                            x       y       z     vdW  Elec       q    Type
REMARK                         _______ _______ _______ _____ _____    ______ ____
ROOT
ATOM      1  CA  HIS A   3      -8.713  35.537 -11.337  0.00  0.00    +0.155 C 
ENDROOT
BRANCH   1   3
ATOM      2  C   GLU A   2      -7.740  37.279 -12.729  0.00  0.00    +0.241 C 
ATOM      3  N   HIS A   3      -8.617  36.929 -11.777  0.00  0.00    -0.297 N 
ATOM      4  H   HIS A   3      -9.232  37.651 -11.349  0.00  0.00    +0.150 HD
ATOM      5  O   GLU A   2      -7.076  36.458 -13.422  0.00  0.00    -0.273 OA
BRANCH   2   6
ATOM      6  CA  GLU A   2      -7.595  38.761 -12.950  0.00  0.00    +0.149 C 
BRANCH   6   9
ATOM      7  C   HIS A   1      -5.370  39.239 -12.163  0.00  0.00    +0.239 C 
ATOM      8  O   HIS A   1      -5.728  39.182 -10.956  0.00  0.00    -0.274 OA
ATOM      9  N   GLU A   2      -6.198  39.069 -13.177  0.00  0.00    -0.297 N 
ATOM     10  H   GLU A   2      -5.843  39.157 -14.151  0.00  0.00    +0.150 HD
BRANCH   7  11
ATOM     11  CA  HIS A   1      -3.938  39.487 -12.586  0.00  0.00    +0.151 C 
BRANCH  11  12
ATOM     12  N   HIS A   1      -3.282  40.584 -11.901  0.00  0.00    -0.238 NA
ATOM     13  H   HIS A   1      -3.165  40.547 -10.868  0.00  0.00    +0.142 HD
ENDBRANCH  11  12
BRANCH  11  14
ATOM     14  CB  HIS A   1      -3.103  38.197 -12.408  0.00  0.00    +0.074 C 
BRANCH  14  15
ATOM     15  CG  HIS A   1      -1.678  38.339 -12.844  0.00  0.00    +0.082 A 
ATOM     16  ND1 HIS A   1      -0.638  38.526 -11.951  0.00  0.00    -0.227 NA
ATOM     17  CE1 HIS A   1       0.503  38.623 -12.615  0.00  0.00    +0.199 A 
ATOM     18  NE2 HIS A   1       0.244  38.505 -13.905  0.00  0.00    -0.221 NA
ATOM     19  CD2 HIS A   1      -1.115  38.329 -14.077  0.00  0.00    +0.115 A 
ENDBRANCH  14  15
ENDBRANCH  11  14
ENDBRANCH   7  11
ENDBRANCH   6   9
BRANCH   6  20
ATOM     20  CB  GLU A   2      -8.416  39.184 -14.138  0.00  0.00    +0.041 C 
BRANCH  20  21
ATOM     21  CG  GLU A   2      -8.571  40.682 -14.196  0.00  0.00    +0.116 C 
BRANCH  21  22
ATOM     22  CD  GLU A   2      -9.325  41.082 -15.411  0.00  0.00    +0.365 C 
ATOM     23  OE2 GLU A   2     -10.563  41.271 -15.296  0.00  0.00    -0.246 OA
ATOM     24  OE1 GLU A   2      -8.661  41.171 -16.471  0.00  0.00    -0.246 OA
ENDBRANCH  21  22
ENDBRANCH  20  21
ENDBRANCH   6  20
ENDBRANCH   2   6
ENDBRANCH   1   3
BRANCH   1  25
ATOM     25  C   HIS A   3     -10.004  35.438 -10.578  0.00  0.00    +0.241 C 
ATOM     26  O   HIS A   3     -10.565  36.476 -10.249  0.00  0.00    -0.273 OA
ATOM     27  N   SER A   4     -10.462  34.218 -10.284  0.00  0.00    -0.295 N 
ATOM     28  H   SER A   4      -9.936  33.381 -10.608  0.00  0.00    +0.150 HD
BRANCH  27  29
ATOM     29  CA  SER A   4     -11.707  34.040  -9.504  0.00  0.00    +0.178 C 
BRANCH  29  30
ATOM     30  C   SER A   4     -11.542  33.311  -8.170  0.00  0.00    +0.243 C 
ATOM     31  N   PHE A   5     -10.343  33.338  -7.601  0.00  0.00    -0.298 N 
ATOM     32  H   PHE A   5      -9.556  33.808  -8.092  0.00  0.00    +0.150 HD
ATOM     33  O   SER A   4     -12.495  32.766  -7.654  0.00  0.00    -0.273 OA
BRANCH  31  34
ATOM     34  CA  PHE A   5     -10.110  32.723  -6.304  0.00  0.00    +0.141 C 
BRANCH  34  35
ATOM     35  C   PHE A   5     -10.477  33.672  -5.189  0.00  0.00    +0.227 C 
ATOM     36  O   PHE A   5      -9.708  33.871  -4.272  0.00  0.00    -0.286 OA
ENDBRANCH  34  35
BRANCH  34  37
ATOM     37  CB  PHE A   5      -8.658  32.263  -6.160  0.00  0.00    +0.054 C 
BRANCH  37  38
ATOM     38  CG  PHE A   5      -8.314  31.049  -6.996  0.00  0.00    -0.020 A 
ATOM     39  CD2 PHE A   5      -8.373  29.780  -6.448  0.00  0.00    -0.004 A 
ATOM     40  CE2 PHE A   5      -8.051  28.652  -7.200  0.00  0.00    -0.000 A 
ATOM     41  CZ  PHE A   5      -7.680  28.804  -8.513  0.00  0.00    -0.000 A 
ATOM     42  CE1 PHE A   5      -7.624  30.084  -9.077  0.00  0.00    -0.000 A 
ATOM     43  CD1 PHE A   5      -7.938  31.185  -8.322  0.00  0.00    -0.004 A 
ENDBRANCH  37  38
ENDBRANCH  34  37
ENDBRANCH  31  34
ENDBRANCH  29  30
BRANCH  29  44
ATOM     44  CB  SER A   4     -12.806  33.357 -10.350  0.00  0.00    +0.166 C 
BRANCH  44  45
ATOM     45  OG  SER A   4     -12.274  32.234 -11.008  0.00  0.00    -0.380 OA
ATOM     46  H   SER A   4     -11.535  32.520 -11.601  0.00  0.00    +0.211 HD
ENDBRANCH  44  45
ENDBRANCH  29  44
ENDBRANCH  27  29
ENDBRANCH   1  25
BRANCH   1  47
ATOM     47  CB  HIS A   3      -7.516  35.199 -10.428  0.00  0.00    +0.076 C 
BRANCH  47  48
ATOM     48  CG  HIS A   3      -7.619  35.804  -9.062  0.00  0.00    +0.082 A 
ATOM     49  CD2 HIS A   3      -8.341  35.435  -7.975  0.00  0.00    +0.115 A 
ATOM     50  NE2 HIS A   3      -8.093  36.368  -6.990  0.00  0.00    -0.221 NA
ATOM     51  CE1 HIS A   3      -7.239  37.262  -7.451  0.00  0.00    +0.199 A 
ATOM     52  ND1 HIS A   3      -6.939  36.945  -8.701  0.00  0.00    -0.227 NA
ENDBRANCH  47  48
ENDBRANCH   1  47
TORSDOF 21
REMARK  Name = ../refined-set-2016/5cs3/5cs3_pocket.pdb
REMARK  104 active torsions:
REMARK  status: ('A' for Active; 'I' for Inactive)
REMARK    1  A    between atoms: _1  and  _3
REMARK    2  A    between atoms: _3  and  _4
REMARK    3  A    between atoms: _3  and  _6
REMARK    4  A    between atoms: _6  and  _7
REMARK    5  A    between atoms: _7  and  _8
REMARK    6  A    between atoms: _8  and  _9
REMARK    7  A    between atoms: _9  and  _10
REMARK    8  A    between atoms: _14  and  _16
REMARK    9  A    between atoms: _16  and  _17
REMARK   10  A    between atoms: _16  and  _19
REMARK   11  A    between atoms: _19  and  _20
REMARK   12  A    between atoms: _30  and  _32
REMARK   13  A    between atoms: _32  and  _33
REMARK   14  A    between atoms: _32  and  _35
REMARK   15  A    between atoms: _35  and  _36
REMARK   16  A    between atoms: _41  and  _43
REMARK   17  A    between atoms: _43  and  _44
REMARK   18  A    between atoms: _43  and  _46
REMARK   19  A    between atoms: _46  and  _47
REMARK   20  A    between atoms: _47  and  _48
REMARK   21  A    between atoms: _51  and  _53
REMARK   22  A    between atoms: _53  and  _54
REMARK   23  A    between atoms: _53  and  _56
REMARK   24  A    between atoms: _56  and  _57
REMARK   25  A    between atoms: _62  and  _64
REMARK   26  A    between atoms: _64  and  _65
REMARK   27  A    between atoms: _64  and  _67
REMARK   28  A    between atoms: _67  and  _68
REMARK   29  A    between atoms: _70  and  _72
REMARK   30  A    between atoms: _72  and  _73
REMARK   31  A    between atoms: _72  and  _75
REMARK   32  A    between atoms: _75  and  _76
REMARK   33  A    between atoms: _82  and  _84
REMARK   34  A    between atoms: _84  and  _85
REMARK   35  A    between atoms: _84  and  _87
REMARK   36  A    between atoms: _87  and  _88
REMARK   37  A    between atoms: _93  and  _94
REMARK   38  A    between atoms: _96  and  _98
REMARK   39  A    between atoms: _98  and  _99
REMARK   40  A    between atoms: _98  and  _101
REMARK   41  A    between atoms: _101  and  _102
REMARK   42  A    between atoms: _102  and  _103
REMARK   43  A    between atoms: _103  and  _104
REMARK   44  A    between atoms: _113  and  _115
REMARK   45  A    between atoms: _115  and  _116
REMARK   46  A    between atoms: _115  and  _118
REMARK   47  A    between atoms: _118  and  _119
REMARK   48  A    between atoms: _125  and  _126
REMARK   49  A    between atoms: _131  and  _133
REMARK   50  A    between atoms: _133  and  _134
REMARK   51  A    between atoms: _133  and  _136
REMARK   52  A    between atoms: _136  and  _137
REMARK   53  A    between atoms: _137  and  _138
REMARK   54  A    between atoms: _138  and  _139
REMARK   55  A    between atoms: _148  and  _150
REMARK   56  A    between atoms: _150  and  _151
REMARK   57  A    between atoms: _153  and  _155
REMARK   58  A    between atoms: _155  and  _156
REMARK   59  A    between atoms: _155  and  _158
REMARK   60  A    between atoms: _158  and  _159
REMARK   61  A    between atoms: _159  and  _160
REMARK   62  A    between atoms: _163  and  _165
REMARK   63  A    between atoms: _165  and  _166
REMARK   64  A    between atoms: _165  and  _168
REMARK   65  A    between atoms: _168  and  _169
REMARK   66  A    between atoms: _169  and  _170
REMARK   67  A    between atoms: _173  and  _175
REMARK   68  A    between atoms: _175  and  _176
REMARK   69  A    between atoms: _178  and  _180
REMARK   70  A    between atoms: _180  and  _181
REMARK   71  A    between atoms: _184  and  _185
REMARK   72  A    between atoms: _190  and  _192
REMARK   73  A    between atoms: _192  and  _193
REMARK   74  A    between atoms: _192  and  _195
REMARK   75  A    between atoms: _195  and  _196
REMARK   76  A    between atoms: _206  and  _208
REMARK   77  A    between atoms: _208  and  _209
REMARK   78  A    between atoms: _208  and  _211
REMARK   79  A    between atoms: _213  and  _215
REMARK   80  A    between atoms: _215  and  _216
REMARK   81  A    between atoms: _215  and  _218
REMARK   82  A    between atoms: _218  and  _219
REMARK   83  A    between atoms: _225  and  _227
REMARK   84  A    between atoms: _227  and  _228
REMARK   85  A    between atoms: _227  and  _230
REMARK   86  A    between atoms: _230  and  _231
REMARK   87  A    between atoms: _231  and  _232
REMARK   88  A    between atoms: _232  and  _233
REMARK   89  A    between atoms: _242  and  _244
REMARK   90  A    between atoms: _244  and  _245
REMARK   91  A    between atoms: _244  and  _247
REMARK   92  A    between atoms: _247  and  _248
REMARK   93  A    between atoms: _253  and  _254
REMARK   94  A    between atoms: _256  and  _258
REMARK   95  A    between atoms: _258  and  _259
REMARK   96  A    between atoms: _258  and  _261
REMARK   97  A    between atoms: _261  and  _262
REMARK   98  A    between atoms: _262  and  _263
REMARK   99  A    between atoms: _266  and  _268
REMARK  100  A    between atoms: _268  and  _269
REMARK  101  A    between atoms: _268  and  _271
REMARK  102  A    between atoms: _274  and  _276
REMARK  103  A    between atoms: _276  and  _277
REMARK  104  A    between atoms: _276  and  _279
REMARK                            x       y       z     vdW  Elec       q    Type
REMARK                         _______ _______ _______ _____ _____    ______ ____
ROOT
ATOM      1  CG  TYR A   1     -11.294  29.230  -2.670  0.00  0.00    -0.020 A 
ATOM      2  CD2 TYR A   1     -11.179  27.890  -2.991  0.00  0.00    -0.001 A 
ATOM      3  CE2 TYR A   1     -11.206  27.450  -4.314  0.00  0.00    +0.036 A 
ATOM      4  CZ  TYR A   1     -11.344  28.352  -5.331  0.00  0.00    +0.134 A 
ATOM      5  CE1 TYR A   1     -11.451  29.711  -5.060  0.00  0.00    +0.036 A 
ATOM      6  CD1 TYR A   1     -11.423  30.147  -3.708  0.00  0.00    -0.001 A 
ENDROOT
BRANCH   4   7
ATOM      7  OH  TYR A   1     -11.354  27.879  -6.613  0.00  0.00    -0.506 OA
ATOM      8  HH  TYR A   1     -11.460  28.636  -7.242  0.00  0.00    +0.292 HD
ENDBRANCH   4   7
BRANCH   1   9
ATOM      9  CB  TYR A   1     -11.271  29.672  -1.232  0.00  0.00    +0.051 C 
BRANCH   9  10
ATOM     10  CA  TYR A   1     -12.618  29.516  -0.517  0.00  0.00    +0.137 C 
BRANCH  10  11
ATOM     11  N   TYR A   1     -13.578  30.537  -0.975  0.00  0.00    -0.239 NA
ATOM     12  H   TYR A   1     -13.649  31.451  -0.484  0.00  0.00    +0.142 HD
ENDBRANCH  10  11
BRANCH  10  13
ATOM     13  C   TYR A   1     -12.410  29.528   0.974  0.00  0.00    +0.224 C 
ATOM     14  O   TYR A   1     -11.273  29.574   1.456  0.00  0.00    -0.287 OA
ENDBRANCH  10  13
ENDBRANCH   9  10
ENDBRANCH   1   9
TORSDOF 5
REMARK  Name = ../refined-set-2016/5cs3/5cs3_pocket.pdb
REMARK  104 active torsions:
REMARK  status: ('A' for Active; 'I' for Inactive)
REMARK    1  A    between atoms: _1  and  _3
REMARK    2  A    between atoms: _3  and  _4
REMARK    3  A    between atoms: _3  and  _6
REMARK    4  A    between atoms: _6  and  _7
REMARK    5  A    between atoms: _7  and  _8
REMARK    6  A    between atoms: _8  and  _9
REMARK    7  A    between atoms: _9  and  _10
REMARK    8  A    between atoms: _14  and  _16
REMARK    9  A    between atoms: _16  and  _17
REMARK   10  A    between atoms: _16  and  _19
REMARK   11  A    between atoms: _19  and  _20
REMARK   12  A    between atoms: _30  and  _32
REMARK   13  A    between atoms: _32  and  _33
REMARK   14  A    between atoms: _32  and  _35
REMARK   15  A    between atoms: _35  and  _36
REMARK   16  A    between atoms: _41  and  _43
REMARK   17  A    between atoms: _43  and  _44
REMARK   18  A    between atoms: _43  and  _46
REMARK   19  A    between atoms: _46  and  _47
REMARK   20  A    between atoms: _47  and  _48
REMARK   21  A    between atoms: _51  and  _53
REMARK   22  A    between atoms: _53  and  _54
REMARK   23  A    between atoms: _53  and  _56
REMARK   24  A    between atoms: _56  and  _57
REMARK   25  A    between atoms: _62  and  _64
REMARK   26  A    between atoms: _64  and  _65
REMARK   27  A    between atoms: _64  and  _67
REMARK   28  A    between atoms: _67  and  _68
REMARK   29  A    between atoms: _70  and  _72
REMARK   30  A    between atoms: _72  and  _73
REMARK   31  A    between atoms: _72  and  _75
REMARK   32  A    between atoms: _75  and  _76
REMARK   33  A    between atoms: _82  and  _84
REMARK   34  A    between atoms: _84  and  _85
REMARK   35  A    between atoms: _84  and  _87
REMARK   36  A    between atoms: _87  and  _88
REMARK   37  A    between atoms: _93  and  _94
REMARK   38  A    between atoms: _96  and  _98
REMARK   39  A    between atoms: _98  and  _99
REMARK   40  A    between atoms: _98  and  _101
REMARK   41  A    between atoms: _101  and  _102
REMARK   42  A    between atoms: _102  and  _103
REMARK   43  A    between atoms: _103  and  _104
REMARK   44  A    between atoms: _113  and  _115
REMARK   45  A    between atoms: _115  and  _116
REMARK   46  A    between atoms: _115  and  _118
REMARK   47  A    between atoms: _118  and  _119
REMARK   48  A    between atoms: _125  and  _126
REMARK   49  A    between atoms: _131  and  _133
REMARK   50  A    between atoms: _133  and  _134
REMARK   51  A    between atoms: _133  and  _136
REMARK   52  A    between atoms: _136  and  _137
REMARK   53  A    between atoms: _137  and  _138
REMARK   54  A    between atoms: _138  and  _139
REMARK   55  A    between atoms: _148  and  _150
REMARK   56  A    between atoms: _150  and  _151
REMARK   57  A    between atoms: _153  and  _155
REMARK   58  A    between atoms: _155  and  _156
REMARK   59  A    between atoms: _155  and  _158
REMARK   60  A    between atoms: _158  and  _159
REMARK   61  A    between atoms: _159  and  _160
REMARK   62  A    between atoms: _163  and  _165
REMARK   63  A    between atoms: _165  and  _166
REMARK   64  A    between atoms: _165  and  _168
REMARK   65  A    between atoms: _168  and  _169
REMARK   66  A    between atoms: _169  and  _170
REMARK   67  A    between atoms: _173  and  _175
REMARK   68  A    between atoms: _175  and  _176
REMARK   69  A    between atoms: _178  and  _180
REMARK   70  A    between atoms: _180  and  _181
REMARK   71  A    between atoms: _184  and  _185
REMARK   72  A    between atoms: _190  and  _192
REMARK   73  A    between atoms: _192  and  _193
REMARK   74  A    between atoms: _192  and  _195
REMARK   75  A    between atoms: _195  and  _196
REMARK   76  A    between atoms: _206  and  _208
REMARK   77  A    between atoms: _208  and  _209
REMARK   78  A    between atoms: _208  and  _211
REMARK   79  A    between atoms: _213  and  _215
REMARK   80  A    between atoms: _215  and  _216
REMARK   81  A    between atoms: _215  and  _218
REMARK   82  A    between atoms: _218  and  _219
REMARK   83  A    between atoms: _225  and  _227
REMARK   84  A    between atoms: _227  and  _228
REMARK   85  A    between atoms: _227  and  _230
REMARK   86  A    between atoms: _230  and  _231
REMARK   87  A    between atoms: _231  and  _232
REMARK   88  A    between atoms: _232  and  _233
REMARK   89  A    between atoms: _242  and  _244
REMARK   90  A    between atoms: _244  and  _245
REMARK   91  A    between atoms: _244  and  _247
REMARK   92  A    between atoms: _247  and  _248
REMARK   93  A    between atoms: _253  and  _254
REMARK   94  A    between atoms: _256  and  _258
REMARK   95  A    between atoms: _258  and  _259
REMARK   96  A    between atoms: _258  and  _261
REMARK   97  A    between atoms: _261  and  _262
REMARK   98  A    between atoms: _262  and  _263
REMARK   99  A    between atoms: _266  and  _268
REMARK  100  A    between atoms: _268  and  _269
REMARK  101  A    between atoms: _268  and  _271
REMARK  102  A    between atoms: _274  and  _276
REMARK  103  A    between atoms: _276  and  _277
REMARK  104  A    between atoms: _276  and  _279
REMARK                            x       y       z     vdW  Elec       q    Type
REMARK                         _______ _______ _______ _____ _____    ______ ____
ROOT
ATOM      1  CA  GLU A   6      -3.153  20.630  -6.534  0.00  0.00    +0.149 C 
ENDROOT
BRANCH   1   2
ATOM      2  C   GLU A   6      -1.727  20.223  -6.390  0.00  0.00    +0.241 C 
ATOM      3  O   GLU A   6      -1.137  20.474  -5.363  0.00  0.00    -0.273 OA
ATOM      4  N   GLU A   7      -1.188  19.623  -7.450  0.00  0.00    -0.297 N 
ATOM      5  H   GLU A   7      -1.717  19.657  -8.345  0.00  0.00    +0.150 HD
BRANCH   4   6
ATOM      6  CA  GLU A   7       0.106  18.914  -7.446  0.00  0.00    +0.149 C 
BRANCH   6   7
ATOM      7  C   GLU A   7       1.300  19.687  -6.908  0.00  0.00    +0.241 C 
ATOM      8  O   GLU A   7       2.065  19.162  -6.057  0.00  0.00    -0.273 OA
ATOM      9  N   GLY A   8       1.454  20.926  -7.357  0.00  0.00    -0.295 N 
ATOM     10  H   GLY A   8       0.733  21.354  -7.973  0.00  0.00    +0.150 HD
BRANCH   9  11
ATOM     11  CA  GLY A   8       2.655  21.691  -6.976  0.00  0.00    +0.176 C 
BRANCH  11  12
ATOM     12  C   GLY A   8       2.827  22.241  -5.550  0.00  0.00    +0.243 C 
ATOM     13  N   GLY A   9       1.831  22.098  -4.682  0.00  0.00    -0.295 N 
ATOM     14  H   GLY A   9       1.030  21.475  -4.907  0.00  0.00    +0.150 HD
ATOM     15  O   GLY A   8       3.873  22.820  -5.234  0.00  0.00    -0.273 OA
BRANCH  13  16
ATOM     16  CA  GLY A   9       1.863  22.817  -3.412  0.00  0.00    +0.176 C 
BRANCH  16  17
ATOM     17  C   GLY A   9       1.466  24.299  -3.528  0.00  0.00    +0.246 C 
ATOM     18  N   PRO A  10       1.727  25.082  -2.463  0.00  0.00    -0.272 N 
ATOM     19  CD  PRO A  10       2.473  24.784  -1.233  0.00  0.00    +0.094 C 
ATOM     20  CG  PRO A  10       1.833  25.695  -0.274  0.00  0.00    +0.024 C 
ATOM     21  CB  PRO A  10       1.509  26.905  -1.035  0.00  0.00    +0.031 C 
ATOM     22  CA  PRO A  10       1.135  26.410  -2.415  0.00  0.00    +0.152 C 
ATOM     23  O   GLY A   9       0.900  24.745  -4.554  0.00  0.00    -0.273 OA
BRANCH  22  24
ATOM     24  C   PRO A  10       1.717  27.305  -3.470  0.00  0.00    +0.241 C 
ATOM     25  O   PRO A  10       2.922  27.253  -3.761  0.00  0.00    -0.273 OA
ATOM     26  N   TRP A  11       0.858  28.125  -4.058  0.00  0.00    -0.297 N 
ATOM     27  H   TRP A  11      -0.136  28.143  -3.752  0.00  0.00    +0.150 HD
BRANCH  26  28
ATOM     28  CA  TRP A  11       1.305  29.003  -5.135  0.00  0.00    +0.153 C 
BRANCH  28  29
ATOM     29  C   TRP A  11       0.566  30.313  -4.855  0.00  0.00    +0.241 C 
ATOM     30  O   TRP A  11      -0.197  30.383  -3.898  0.00  0.00    -0.273 OA
ATOM     31  N   CYS A  12       0.759  31.322  -5.701  0.00  0.00    -0.296 N 
ATOM     32  H   CYS A  12       1.453  31.210  -6.467  0.00  0.00    +0.150 HD
BRANCH  31  33
ATOM     33  CA  CYS A  12       0.032  32.575  -5.589  0.00  0.00    +0.160 C 
BRANCH  33  34
ATOM     34  C   CYS A  12       0.094  33.273  -6.969  0.00  0.00    +0.242 C 
ATOM     35  N   PHE A  13      -0.784  34.244  -7.198  0.00  0.00    -0.298 N 
ATOM     36  H   PHE A  13      -1.562  34.411  -6.529  0.00  0.00    +0.150 HD
ATOM     37  O   CYS A  12       0.908  32.916  -7.834  0.00  0.00    -0.273 OA
BRANCH  35  38
ATOM     38  CA  PHE A  13      -0.655  35.067  -8.378  0.00  0.00    +0.141 C 
BRANCH  38  39
ATOM     39  C   PHE A  13       0.490  35.994  -8.039  0.00  0.00    +0.227 C 
ATOM     40  O   PHE A  13       0.728  36.305  -6.860  0.00  0.00    -0.286 OA
ENDBRANCH  38  39
BRANCH  38  41
ATOM     41  CB  PHE A  13      -1.965  35.828  -8.664  0.00  0.00    +0.054 C 
BRANCH  41  42
ATOM     42  CG  PHE A  13      -3.106  34.906  -9.057  0.00  0.00    -0.020 A 
ATOM     43  CD2 PHE A  13      -4.095  34.584  -8.147  0.00  0.00    -0.004 A 
ATOM     44  CE2 PHE A  13      -5.096  33.701  -8.487  0.00  0.00    -0.000 A 
ATOM     45  CZ  PHE A  13      -5.110  33.118  -9.725  0.00  0.00    -0.000 A 
ATOM     46  CE1 PHE A  13      -4.123  33.441 -10.650  0.00  0.00    -0.000 A 
ATOM     47  CD1 PHE A  13      -3.153  34.330 -10.313  0.00  0.00    -0.004 A 
ENDBRANCH  41  42
ENDBRANCH  38  41
ENDBRANCH  35  38
ENDBRANCH  33  34
BRANCH  33  48
ATOM     48  CB  CYS A  12       0.693  33.440  -4.511  0.00  0.00    +0.098 C 
ATOM     49  SG  CYS A  12       2.373  33.971  -4.987  0.00  0.00    -0.080 S 
ENDBRANCH  33  48
ENDBRANCH  31  33
ENDBRANCH  28  29
BRANCH  28  50
ATOM     50  CB  TRP A  11       0.894  28.398  -6.496  0.00  0.00    +0.057 C 
BRANCH  50  51
ATOM     51  CG  TRP A  11      -0.582  28.141  -6.528  0.00  0.00    -0.002 A 
ATOM     52  CD1 TRP A  11      -1.228  27.057  -6.059  0.00  0.00    +0.068 A 
ATOM     53  NE1 TRP A  11      -2.592  27.213  -6.205  0.00  0.00    -0.352 N 
ATOM     54  HE1 TRP A  11      -3.317  26.529  -5.908  0.00  0.00    +0.166 HD
ATOM     55  CE2 TRP A  11      -2.831  28.420  -6.807  0.00  0.00    +0.056 A 
ATOM     56  CZ2 TRP A  11      -4.029  29.025  -7.167  0.00  0.00    +0.017 A 
ATOM     57  CH2 TRP A  11      -3.961  30.280  -7.709  0.00  0.00    +0.001 A 
ATOM     58  CZ3 TRP A  11      -2.737  30.908  -7.948  0.00  0.00    +0.000 A 
ATOM     59  CE3 TRP A  11      -1.563  30.309  -7.608  0.00  0.00    +0.001 A 
ATOM     60  CD2 TRP A  11      -1.596  29.047  -6.992  0.00  0.00    +0.013 A 
ENDBRANCH  50  51
ENDBRANCH  28  50
ENDBRANCH  26  28
ENDBRANCH  22  24
ENDBRANCH  16  17
ENDBRANCH  13  16
ENDBRANCH  11  12
ENDBRANCH   9  11
ENDBRANCH   6   7
BRANCH   6  61
ATOM     61  CB  GLU A   7       0.426  18.342  -8.839  0.00  0.00    +0.041 C 
BRANCH  61  62
ATOM     62  CG  GLU A   7       0.399  16.802  -8.960  0.00  0.00    +0.116 C 
BRANCH  62  63
ATOM     63  CD  GLU A   7      -0.366  16.115  -7.835  0.00  0.00    +0.365 C 
ATOM     64  OE2 GLU A   7      -1.345  16.697  -7.340  0.00  0.00    -0.246 OA
ATOM     65  OE1 GLU A   7       0.018  14.995  -7.425  0.00  0.00    -0.246 OA
ENDBRANCH  62  63
ENDBRANCH  61  62
ENDBRANCH   6  61
ENDBRANCH   4   6
ENDBRANCH   1   2
BRANCH   1  68
ATOM     66  C   GLY A   5      -4.342  20.445  -4.431  0.00  0.00    +0.243 C 
ATOM     67  O   GLY A   5      -4.446  19.233  -4.560  0.00  0.00    -0.273 OA
ATOM     68  N   GLU A   6      -3.698  21.198  -5.312  0.00  0.00    -0.297 N 
ATOM     69  H   GLU A   6      -3.581  22.214  -5.125  0.00  0.00    +0.150 HD
BRANCH  66  70
ATOM     70  CA  GLY A   5      -4.954  21.162  -3.233  0.00  0.00    +0.176 C 
BRANCH  70  72
ATOM     71  C   ARG A   4      -6.829  22.202  -4.453  0.00  0.00    +0.241 C 
ATOM     72  N   GLY A   5      -5.838  22.291  -3.565  0.00  0.00    -0.295 N 
ATOM     73  H   GLY A   5      -5.683  23.200  -3.085  0.00  0.00    +0.150 HD
ATOM     74  O   ARG A   4      -7.019  21.215  -5.149  0.00  0.00    -0.273 OA
BRANCH  71  75
ATOM     75  CA  ARG A   4      -7.739  23.412  -4.617  0.00  0.00    +0.149 C 
BRANCH  75  78
ATOM     76  C   PRO A   3      -7.410  24.909  -2.747  0.00  0.00    +0.241 C 
ATOM     77  O   PRO A   3      -8.163  24.227  -2.053  0.00  0.00    -0.273 OA
ATOM     78  N   ARG A   4      -7.174  24.644  -4.025  0.00  0.00    -0.297 N 
ATOM     79  H   ARG A   4      -6.601  25.292  -4.602  0.00  0.00    +0.150 HD
BRANCH  76  83
ATOM     80  C   ASN A   2      -4.328  25.240  -2.300  0.00  0.00    +0.244 C 
ATOM     81  O   ASN A   2      -4.551  24.090  -1.935  0.00  0.00    -0.273 OA
ATOM     82  N   PRO A   3      -5.282  26.169  -2.546  0.00  0.00    -0.272 N 
ATOM     83  CA  PRO A   3      -6.682  26.070  -2.128  0.00  0.00    +0.152 C 
ATOM     84  CB  PRO A   3      -7.297  27.405  -2.576  0.00  0.00    +0.031 C 
ATOM     85  CG  PRO A   3      -6.357  27.957  -3.573  0.00  0.00    +0.024 C 
ATOM     86  CD  PRO A   3      -5.007  27.450  -3.223  0.00  0.00    +0.094 C 
BRANCH  80  87
ATOM     87  CA  ASN A   2      -2.909  25.682  -2.458  0.00  0.00    +0.158 C 
BRANCH  87  89
ATOM     88  C   ARG A   1      -2.118  27.861  -1.795  0.00  0.00    +0.238 C 
ATOM     89  N   ASN A   2      -2.641  26.707  -1.440  0.00  0.00    -0.297 N 
ATOM     90  H   ASN A   2      -2.864  26.521  -0.441  0.00  0.00    +0.150 HD
ATOM     91  O   ARG A   1      -1.802  28.136  -2.965  0.00  0.00    -0.274 OA
BRANCH  88  92
ATOM     92  CA  ARG A   1      -1.861  28.803  -0.668  0.00  0.00    +0.145 C 
BRANCH  92  93
ATOM     93  N   ARG A   1      -0.798  29.690  -1.055  0.00  0.00    -0.238 NA
ATOM     94  H   ARG A   1      -0.729  29.994  -2.047  0.00  0.00    +0.142 HD
ENDBRANCH  92  93
BRANCH  92  95
ATOM     95  CB  ARG A   1      -3.128  29.597  -0.337  0.00  0.00    +0.030 C 
BRANCH  95  96
ATOM     96  CG  ARG A   1      -2.974  30.426   0.923  0.00  0.00    +0.045 C 
BRANCH  96  97
ATOM     97  CD  ARG A   1      -2.923  29.587   2.183  0.00  0.00    +0.174 C 
BRANCH  97  98
ATOM     98  NE  ARG A   1      -3.034  30.470   3.340  0.00  0.00    -0.265 N 
ATOM     99  CZ  ARG A   1      -2.019  30.871   4.100  0.00  0.00    +0.342 C 
ATOM    100  NH2 ARG A   1      -2.264  31.671   5.106  0.00  0.00    -0.292 N 
ATOM    101 HH21 ARG A   1      -1.485  31.997   5.713  0.00  0.00    +0.255 HD
ATOM    102 HH22 ARG A   1      -3.238  31.981   5.299  0.00  0.00    +0.255 HD
ATOM    103  NH1 ARG A   1      -0.773  30.450   3.889  0.00  0.00    -0.292 N 
ATOM    104 HH11 ARG A   1      -0.001  30.782   4.501  0.00  0.00    +0.255 HD
ATOM    105 HH12 ARG A   1      -0.572  29.789   3.112  0.00  0.00    +0.255 HD
ATOM    106  HE  ARG A   1      -3.983  30.813   3.590  0.00  0.00    +0.259 HD
ENDBRANCH  97  98
ENDBRANCH  96  97
ENDBRANCH  95  96
ENDBRANCH  92  95
ENDBRANCH  88  92
ENDBRANCH  87  89
BRANCH  87 107
ATOM    107  CB  ASN A   2      -1.984  24.488  -2.259  0.00  0.00    +0.114 C 
BRANCH 107 108
ATOM    108  CG  ASN A   2      -2.088  23.503  -3.364  0.00  0.00    +0.222 C 
ATOM    109  ND2 ASN A   2      -1.699  22.245  -3.089  0.00  0.00    -0.329 N 
ATOM    110 HD21 ASN A   2      -1.333  22.009  -2.145  0.00  0.00    +0.145 HD
ATOM    111 HD22 ASN A   2      -1.764  21.509  -3.821  0.00  0.00    +0.145 HD
ATOM    112  OD1 ASN A   2      -2.530  23.846  -4.463  0.00  0.00    -0.275 OA
ENDBRANCH 107 108
ENDBRANCH  87 107
ENDBRANCH  80  87
ENDBRANCH  76  83
ENDBRANCH  75  78
BRANCH  75 113
ATOM    113  CB  ARG A   4      -8.052  23.578  -6.110  0.00  0.00    +0.033 C 
BRANCH 113 114
ATOM    114  CG  ARG A   4      -8.941  24.745  -6.481  0.00  0.00    +0.045 C 
BRANCH 114 115
ATOM    115  CD  ARG A   4      -9.318  24.643  -7.953  0.00  0.00    +0.174 C 
BRANCH 115 116
ATOM    116  NE  ARG A   4      -8.194  24.991  -8.817  0.00  0.00    -0.265 N 
ATOM    117  HE  ARG A   4      -7.327  25.338  -8.358  0.00  0.00    +0.259 HD
ATOM    118  CZ  ARG A   4      -8.189  24.900 -10.151  0.00  0.00    +0.342 C 
ATOM    119  NH2 ARG A   4      -9.255  24.448 -10.809  0.00  0.00    -0.292 N 
ATOM    120 HH21 ARG A   4     -10.106  24.160 -10.285  0.00  0.00    +0.255 HD
ATOM    121 HH22 ARG A   4      -9.236  24.383 -11.847  0.00  0.00    +0.255 HD
ATOM    122  NH1 ARG A   4      -7.099  25.263 -10.830  0.00  0.00    -0.292 N 
ATOM    123 HH11 ARG A   4      -6.262  25.613 -10.321  0.00  0.00    +0.255 HD
ATOM    124 HH12 ARG A   4      -7.086  25.196 -11.868  0.00  0.00    +0.255 HD
ENDBRANCH 115 116
ENDBRANCH 114 115
ENDBRANCH 113 114
ENDBRANCH  75 113
ENDBRANCH  71  75
ENDBRANCH  70  72
ENDBRANCH  66  70
ENDBRANCH   1  68
BRANCH   1 125
ATOM    125  CB  GLU A   6      -3.337  21.607  -7.667  0.00  0.00    +0.041 C 
BRANCH 125 126
ATOM    126  CG  GLU A   6      -4.790  21.911  -7.819  0.00  0.00    +0.116 C 
BRANCH 126 127
ATOM    127  CD  GLU A   6      -5.044  22.939  -8.854  0.00  0.00    +0.365 C 
ATOM    128  OE2 GLU A   6      -5.608  23.991  -8.472  0.00  0.00    -0.246 OA
ATOM    129  OE1 GLU A   6      -4.690  22.695 -10.036  0.00  0.00    -0.246 OA
ENDBRANCH 126 127
ENDBRANCH 125 126
ENDBRANCH   1 125
TORSDOF 45
REMARK  Name = ../refined-set-2016/5cs3/5cs3_pocket.pdb
REMARK  104 active torsions:
REMARK  status: ('A' for Active; 'I' for Inactive)
REMARK    1  A    between atoms: _1  and  _3
REMARK    2  A    between atoms: _3  and  _4
REMARK    3  A    between atoms: _3  and  _6
REMARK    4  A    between atoms: _6  and  _7
REMARK    5  A    between atoms: _7  and  _8
REMARK    6  A    between atoms: _8  and  _9
REMARK    7  A    between atoms: _9  and  _10
REMARK    8  A    between atoms: _14  and  _16
REMARK    9  A    between atoms: _16  and  _17
REMARK   10  A    between atoms: _16  and  _19
REMARK   11  A    between atoms: _19  and  _20
REMARK   12  A    between atoms: _30  and  _32
REMARK   13  A    between atoms: _32  and  _33
REMARK   14  A    between atoms: _32  and  _35
REMARK   15  A    between atoms: _35  and  _36
REMARK   16  A    between atoms: _41  and  _43
REMARK   17  A    between atoms: _43  and  _44
REMARK   18  A    between atoms: _43  and  _46
REMARK   19  A    between atoms: _46  and  _47
REMARK   20  A    between atoms: _47  and  _48
REMARK   21  A    between atoms: _51  and  _53
REMARK   22  A    between atoms: _53  and  _54
REMARK   23  A    between atoms: _53  and  _56
REMARK   24  A    between atoms: _56  and  _57
REMARK   25  A    between atoms: _62  and  _64
REMARK   26  A    between atoms: _64  and  _65
REMARK   27  A    between atoms: _64  and  _67
REMARK   28  A    between atoms: _67  and  _68
REMARK   29  A    between atoms: _70  and  _72
REMARK   30  A    between atoms: _72  and  _73
REMARK   31  A    between atoms: _72  and  _75
REMARK   32  A    between atoms: _75  and  _76
REMARK   33  A    between atoms: _82  and  _84
REMARK   34  A    between atoms: _84  and  _85
REMARK   35  A    between atoms: _84  and  _87
REMARK   36  A    between atoms: _87  and  _88
REMARK   37  A    between atoms: _93  and  _94
REMARK   38  A    between atoms: _96  and  _98
REMARK   39  A    between atoms: _98  and  _99
REMARK   40  A    between atoms: _98  and  _101
REMARK   41  A    between atoms: _101  and  _102
REMARK   42  A    between atoms: _102  and  _103
REMARK   43  A    between atoms: _103  and  _104
REMARK   44  A    between atoms: _113  and  _115
REMARK   45  A    between atoms: _115  and  _116
REMARK   46  A    between atoms: _115  and  _118
REMARK   47  A    between atoms: _118  and  _119
REMARK   48  A    between atoms: _125  and  _126
REMARK   49  A    between atoms: _131  and  _133
REMARK   50  A    between atoms: _133  and  _134
REMARK   51  A    between atoms: _133  and  _136
REMARK   52  A    between atoms: _136  and  _137
REMARK   53  A    between atoms: _137  and  _138
REMARK   54  A    between atoms: _138  and  _139
REMARK   55  A    between atoms: _148  and  _150
REMARK   56  A    between atoms: _150  and  _151
REMARK   57  A    between atoms: _153  and  _155
REMARK   58  A    between atoms: _155  and  _156
REMARK   59  A    between atoms: _155  and  _158
REMARK   60  A    between atoms: _158  and  _159
REMARK   61  A    between atoms: _159  and  _160
REMARK   62  A    between atoms: _163  and  _165
REMARK   63  A    between atoms: _165  and  _166
REMARK   64  A    between atoms: _165  and  _168
REMARK   65  A    between atoms: _168  and  _169
REMARK   66  A    between atoms: _169  and  _170
REMARK   67  A    between atoms: _173  and  _175
REMARK   68  A    between atoms: _175  and  _176
REMARK   69  A    between atoms: _178  and  _180
REMARK   70  A    between atoms: _180  and  _181
REMARK   71  A    between atoms: _184  and  _185
REMARK   72  A    between atoms: _190  and  _192
REMARK   73  A    between atoms: _192  and  _193
REMARK   74  A    between atoms: _192  and  _195
REMARK   75  A    between atoms: _195  and  _196
REMARK   76  A    between atoms: _206  and  _208
REMARK   77  A    between atoms: _208  and  _209
REMARK   78  A    between atoms: _208  and  _211
REMARK   79  A    between atoms: _213  and  _215
REMARK   80  A    between atoms: _215  and  _216
REMARK   81  A    between atoms: _215  and  _218
REMARK   82  A    between atoms: _218  and  _219
REMARK   83  A    between atoms: _225  and  _227
REMARK   84  A    between atoms: _227  and  _228
REMARK   85  A    between atoms: _227  and  _230
REMARK   86  A    between atoms: _230  and  _231
REMARK   87  A    between atoms: _231  and  _232
REMARK   88  A    between atoms: _232  and  _233
REMARK   89  A    between atoms: _242  and  _244
REMARK   90  A    between atoms: _244  and  _245
REMARK   91  A    between atoms: _244  and  _247
REMARK   92  A    between atoms: _247  and  _248
REMARK   93  A    between atoms: _253  and  _254
REMARK   94  A    between atoms: _256  and  _258
REMARK   95  A    between atoms: _258  and  _259
REMARK   96  A    between atoms: _258  and  _261
REMARK   97  A    between atoms: _261  and  _262
REMARK   98  A    between atoms: _262  and  _263
REMARK   99  A    between atoms: _266  and  _268
REMARK  100  A    between atoms: _268  and  _269
REMARK  101  A    between atoms: _268  and  _271
REMARK  102  A    between atoms: _274  and  _276
REMARK  103  A    between atoms: _276  and  _277
REMARK  104  A    between atoms: _276  and  _279
REMARK                            x       y       z     vdW  Elec       q    Type
REMARK                         _______ _______ _______ _____ _____    ______ ____
ROOT
ATOM      1  CA  TYR A   2       1.503  32.691 -11.084  0.00  0.00    +0.153 C 
ENDROOT
BRANCH   1   2
ATOM      2  C   TYR A   2       2.772  31.871 -10.961  0.00  0.00    +0.241 C 
ATOM      3  N   GLU A   3       2.997  31.355  -9.745  0.00  0.00    -0.297 N 
ATOM      4  H   GLU A   3       2.282  31.498  -9.003  0.00  0.00    +0.150 HD
ATOM      5  O   TYR A   2       3.521  31.712 -11.948  0.00  0.00    -0.273 OA
BRANCH   3   6
ATOM      6  CA  GLU A   3       4.195  30.605  -9.420  0.00  0.00    +0.149 C 
BRANCH   6   7
ATOM      7  C   GLU A   3       4.137  29.894  -8.057  0.00  0.00    +0.241 C 
ATOM      8  O   GLU A   3       3.498  30.360  -7.103  0.00  0.00    -0.273 OA
ATOM      9  N   VAL A   4       4.812  28.756  -7.976  0.00  0.00    -0.297 N 
ATOM     10  H   VAL A   4       5.328  28.406  -8.808  0.00  0.00    +0.150 HD
BRANCH   9  11
ATOM     11  CA  VAL A   4       4.841  27.998  -6.755  0.00  0.00    +0.149 C 
BRANCH  11  12
ATOM     12  C   VAL A   4       5.701  28.719  -5.776  0.00  0.00    +0.241 C 
ATOM     13  N   CYS A   5       5.357  28.555  -4.514  0.00  0.00    -0.297 N 
ATOM     14  H   CYS A   5       4.467  28.075  -4.269  0.00  0.00    +0.150 HD
ATOM     15  O   VAL A   4       6.611  29.465  -6.142  0.00  0.00    -0.273 OA
BRANCH  13  16
ATOM     16  CA  CYS A   5       6.217  29.042  -3.493  0.00  0.00    +0.149 C 
BRANCH  16  17
ATOM     17  C   CYS A   5       6.876  27.770  -3.043  0.00  0.00    +0.228 C 
ATOM     18  O   CYS A   5       6.310  26.687  -3.107  0.00  0.00    -0.286 OA
ENDBRANCH  16  17
BRANCH  16  19
ATOM     19  CB  CYS A   5       5.429  29.690  -2.383  0.00  0.00    +0.096 C 
ATOM     20  SG  CYS A   5       4.390  30.964  -3.010  0.00  0.00    -0.080 S 
ENDBRANCH  16  19
ENDBRANCH  13  16
ENDBRANCH  11  12
BRANCH  11  21
ATOM     21  CB  VAL A   4       5.328  26.524  -6.924  0.00  0.00    +0.027 C 
ATOM     22  CG2 VAL A   4       6.787  26.389  -7.625  0.00  0.00    +0.002 C 
ATOM     23  CG1 VAL A   4       4.292  25.783  -7.684  0.00  0.00    +0.002 C 
ENDBRANCH  11  21
ENDBRANCH   9  11
ENDBRANCH   6   7
BRANCH   6  24
ATOM     24  CB  GLU A   3       5.450  31.496  -9.521  0.00  0.00    +0.041 C 
BRANCH  24  25
ATOM     25  CG  GLU A   3       6.722  30.667  -9.672  0.00  0.00    +0.116 C 
BRANCH  25  26
ATOM     26  CD  GLU A   3       8.013  31.465  -9.917  0.00  0.00    +0.365 C 
ATOM     27  OE2 GLU A   3       8.136  32.644  -9.474  0.00  0.00    -0.246 OA
ATOM     28  OE1 GLU A   3       8.932  30.868 -10.540  0.00  0.00    -0.246 OA
ENDBRANCH  25  26
ENDBRANCH  24  25
ENDBRANCH   6  24
ENDBRANCH   3   6
ENDBRANCH   1   2
BRANCH   1  31
ATOM     29  C   ARG A   1       0.665  34.535 -12.481  0.00  0.00    +0.238 C 
ATOM     30  O   ARG A   1       0.012  35.007 -11.542  0.00  0.00    -0.274 OA
ATOM     31  N   TYR A   2       1.401  33.420 -12.363  0.00  0.00    -0.297 N 
ATOM     32  H   TYR A   2       1.913  33.060 -13.194  0.00  0.00    +0.150 HD
BRANCH  29  33
ATOM     33  CA  ARG A   1       0.624  35.228 -13.863  0.00  0.00    +0.145 C 
BRANCH  33  34
ATOM     34  N   ARG A   1       1.935  35.381 -14.451  0.00  0.00    -0.238 NA
ATOM     35  H   ARG A   1       2.119  35.044 -15.417  0.00  0.00    +0.142 HD
ENDBRANCH  33  34
BRANCH  33  36
ATOM     36  CB  ARG A   1      -0.337  34.531 -14.835  0.00  0.00    +0.030 C 
BRANCH  36  37
ATOM     37  CG  ARG A   1      -1.680  34.196 -14.200  0.00  0.00    +0.045 C 
BRANCH  37  38
ATOM     38  CD  ARG A   1      -2.825  34.169 -15.220  0.00  0.00    +0.174 C 
BRANCH  38  39
ATOM     39  NE  ARG A   1      -3.998  33.506 -14.681  0.00  0.00    -0.265 N 
ATOM     40  CZ  ARG A   1      -5.111  34.144 -14.338  0.00  0.00    +0.342 C 
ATOM     41  NH2 ARG A   1      -6.159  33.490 -13.846  0.00  0.00    -0.292 N 
ATOM     42 HH21 ARG A   1      -7.021  34.010 -13.584  0.00  0.00    +0.255 HD
ATOM     43 HH22 ARG A   1      -6.117  32.458 -13.723  0.00  0.00    +0.255 HD
ATOM     44  NH1 ARG A   1      -5.194  35.441 -14.517  0.00  0.00    -0.292 N 
ATOM     45 HH11 ARG A   1      -6.062  35.948 -14.251  0.00  0.00    +0.255 HD
ATOM     46 HH12 ARG A   1      -4.392  35.962 -14.925  0.00  0.00    +0.255 HD
ATOM     47  HE  ARG A   1      -3.965  32.474 -14.556  0.00  0.00    +0.259 HD
ENDBRANCH  38  39
ENDBRANCH  37  38
ENDBRANCH  36  37
ENDBRANCH  33  36
ENDBRANCH  29  33
ENDBRANCH   1  31
BRANCH   1  48
ATOM     48  CB  TYR A   2       0.281  31.799 -10.813  0.00  0.00    +0.055 C 
BRANCH  48  49
ATOM     49  CG  TYR A   2       0.137  30.702 -11.816  0.00  0.00    -0.020 A 
ATOM     50  CD2 TYR A   2       0.926  29.557 -11.735  0.00  0.00    -0.001 A 
ATOM     51  CE2 TYR A   2       0.822  28.561 -12.669  0.00  0.00    +0.036 A 
ATOM     52  CZ  TYR A   2      -0.077  28.695 -13.703  0.00  0.00    +0.134 A 
ATOM     53  CE1 TYR A   2      -0.866  29.825 -13.817  0.00  0.00    +0.036 A 
ATOM     54  CD1 TYR A   2      -0.751  30.824 -12.877  0.00  0.00    -0.001 A 
BRANCH  52  55
ATOM     55  OH  TYR A   2      -0.187  27.688 -14.629  0.00  0.00    -0.506 OA
ATOM     56  HH  TYR A   2      -0.870  27.934 -15.302  0.00  0.00    +0.292 HD
ENDBRANCH  52  55
ENDBRANCH  48  49
ENDBRANCH   1  48
TORSDOF 22
REMARK  Name = ../refined-set-2016/5cs3/5cs3_pocket.pdb
REMARK  104 active torsions:
REMARK  status: ('A' for Active; 'I' for Inactive)
REMARK    1  A    between atoms: _1  and  _3
REMARK    2  A    between atoms: _3  and  _4
REMARK    3  A    between atoms: _3  and  _6
REMARK    4  A    between atoms: _6  and  _7
REMARK    5  A    between atoms: _7  and  _8
REMARK    6  A    between atoms: _8  and  _9
REMARK    7  A    between atoms: _9  and  _10
REMARK    8  A    between atoms: _14  and  _16
REMARK    9  A    between atoms: _16  and  _17
REMARK   10  A    between atoms: _16  and  _19
REMARK   11  A    between atoms: _19  and  _20
REMARK   12  A    between atoms: _30  and  _32
REMARK   13  A    between atoms: _32  and  _33
REMARK   14  A    between atoms: _32  and  _35
REMARK   15  A    between atoms: _35  and  _36
REMARK   16  A    between atoms: _41  and  _43
REMARK   17  A    between atoms: _43  and  _44
REMARK   18  A    between atoms: _43  and  _46
REMARK   19  A    between atoms: _46  and  _47
REMARK   20  A    between atoms: _47  and  _48
REMARK   21  A    between atoms: _51  and  _53
REMARK   22  A    between atoms: _53  and  _54
REMARK   23  A    between atoms: _53  and  _56
REMARK   24  A    between atoms: _56  and  _57
REMARK   25  A    between atoms: _62  and  _64
REMARK   26  A    between atoms: _64  and  _65
REMARK   27  A    between atoms: _64  and  _67
REMARK   28  A    between atoms: _67  and  _68
REMARK   29  A    between atoms: _70  and  _72
REMARK   30  A    between atoms: _72  and  _73
REMARK   31  A    between atoms: _72  and  _75
REMARK   32  A    between atoms: _75  and  _76
REMARK   33  A    between atoms: _82  and  _84
REMARK   34  A    between atoms: _84  and  _85
REMARK   35  A    between atoms: _84  and  _87
REMARK   36  A    between atoms: _87  and  _88
REMARK   37  A    between atoms: _93  and  _94
REMARK   38  A    between atoms: _96  and  _98
REMARK   39  A    between atoms: _98  and  _99
REMARK   40  A    between atoms: _98  and  _101
REMARK   41  A    between atoms: _101  and  _102
REMARK   42  A    between atoms: _102  and  _103
REMARK   43  A    between atoms: _103  and  _104
REMARK   44  A    between atoms: _113  and  _115
REMARK   45  A    between atoms: _115  and  _116
REMARK   46  A    between atoms: _115  and  _118
REMARK   47  A    between atoms: _118  and  _119
REMARK   48  A    between atoms: _125  and  _126
REMARK   49  A    between atoms: _131  and  _133
REMARK   50  A    between atoms: _133  and  _134
REMARK   51  A    between atoms: _133  and  _136
REMARK   52  A    between atoms: _136  and  _137
REMARK   53  A    between atoms: _137  and  _138
REMARK   54  A    between atoms: _138  and  _139
REMARK   55  A    between atoms: _148  and  _150
REMARK   56  A    between atoms: _150  and  _151
REMARK   57  A    between atoms: _153  and  _155
REMARK   58  A    between atoms: _155  and  _156
REMARK   59  A    between atoms: _155  and  _158
REMARK   60  A    between atoms: _158  and  _159
REMARK   61  A    between atoms: _159  and  _160
REMARK   62  A    between atoms: _163  and  _165
REMARK   63  A    between atoms: _165  and  _166
REMARK   64  A    between atoms: _165  and  _168
REMARK   65  A    between atoms: _168  and  _169
REMARK   66  A    between atoms: _169  and  _170
REMARK   67  A    between atoms: _173  and  _175
REMARK   68  A    between atoms: _175  and  _176
REMARK   69  A    between atoms: _178  and  _180
REMARK   70  A    between atoms: _180  and  _181
REMARK   71  A    between atoms: _184  and  _185
REMARK   72  A    between atoms: _190  and  _192
REMARK   73  A    between atoms: _192  and  _193
REMARK   74  A    between atoms: _192  and  _195
REMARK   75  A    between atoms: _195  and  _196
REMARK   76  A    between atoms: _206  and  _208
REMARK   77  A    between atoms: _208  and  _209
REMARK   78  A    between atoms: _208  and  _211
REMARK   79  A    between atoms: _213  and  _215
REMARK   80  A    between atoms: _215  and  _216
REMARK   81  A    between atoms: _215  and  _218
REMARK   82  A    between atoms: _218  and  _219
REMARK   83  A    between atoms: _225  and  _227
REMARK   84  A    between atoms: _227  and  _228
REMARK   85  A    between atoms: _227  and  _230
REMARK   86  A    between atoms: _230  and  _231
REMARK   87  A    between atoms: _231  and  _232
REMARK   88  A    between atoms: _232  and  _233
REMARK   89  A    between atoms: _242  and  _244
REMARK   90  A    between atoms: _244  and  _245
REMARK   91  A    between atoms: _244  and  _247
REMARK   92  A    between atoms: _247  and  _248
REMARK   93  A    between atoms: _253  and  _254
REMARK   94  A    between atoms: _256  and  _258
REMARK   95  A    between atoms: _258  and  _259
REMARK   96  A    between atoms: _258  and  _261
REMARK   97  A    between atoms: _261  and  _262
REMARK   98  A    between atoms: _262  and  _263
REMARK   99  A    between atoms: _266  and  _268
REMARK  100  A    between atoms: _268  and  _269
REMARK  101  A    between atoms: _268  and  _271
REMARK  102  A    between atoms: _274  and  _276
REMARK  103  A    between atoms: _276  and  _277
REMARK  104  A    between atoms: _276  and  _279
REMARK                            x       y       z     vdW  Elec       q    Type
REMARK                         _______ _______ _______ _____ _____    ______ ____
ROOT
ATOM      1  O   HOH     1      -9.705  31.695 -11.631  0.00  0.00    +0.000 OA
ENDROOT
TORSDOF 0
REMARK  Name = ../refined-set-2016/5cs3/5cs3_pocket.pdb
REMARK  104 active torsions:
REMARK  status: ('A' for Active; 'I' for Inactive)
REMARK    1  A    between atoms: _1  and  _3
REMARK    2  A    between atoms: _3  and  _4
REMARK    3  A    between atoms: _3  and  _6
REMARK    4  A    between atoms: _6  and  _7
REMARK    5  A    between atoms: _7  and  _8
REMARK    6  A    between atoms: _8  and  _9
REMARK    7  A    between atoms: _9  and  _10
REMARK    8  A    between atoms: _14  and  _16
REMARK    9  A    between atoms: _16  and  _17
REMARK   10  A    between atoms: _16  and  _19
REMARK   11  A    between atoms: _19  and  _20
REMARK   12  A    between atoms: _30  and  _32
REMARK   13  A    between atoms: _32  and  _33
REMARK   14  A    between atoms: _32  and  _35
REMARK   15  A    between atoms: _35  and  _36
REMARK   16  A    between atoms: _41  and  _43
REMARK   17  A    between atoms: _43  and  _44
REMARK   18  A    between atoms: _43  and  _46
REMARK   19  A    between atoms: _46  and  _47
REMARK   20  A    between atoms: _47  and  _48
REMARK   21  A    between atoms: _51  and  _53
REMARK   22  A    between atoms: _53  and  _54
REMARK   23  A    between atoms: _53  and  _56
REMARK   24  A    between atoms: _56  and  _57
REMARK   25  A    between atoms: _62  and  _64
REMARK   26  A    between atoms: _64  and  _65
REMARK   27  A    between atoms: _64  and  _67
REMARK   28  A    between atoms: _67  and  _68
REMARK   29  A    between atoms: _70  and  _72
REMARK   30  A    between atoms: _72  and  _73
REMARK   31  A    between atoms: _72  and  _75
REMARK   32  A    between atoms: _75  and  _76
REMARK   33  A    between atoms: _82  and  _84
REMARK   34  A    between atoms: _84  and  _85
REMARK   35  A    between atoms: _84  and  _87
REMARK   36  A    between atoms: _87  and  _88
REMARK   37  A    between atoms: _93  and  _94
REMARK   38  A    between atoms: _96  and  _98
REMARK   39  A    between atoms: _98  and  _99
REMARK   40  A    between atoms: _98  and  _101
REMARK   41  A    between atoms: _101  and  _102
REMARK   42  A    between atoms: _102  and  _103
REMARK   43  A    between atoms: _103  and  _104
REMARK   44  A    between atoms: _113  and  _115
REMARK   45  A    between atoms: _115  and  _116
REMARK   46  A    between atoms: _115  and  _118
REMARK   47  A    between atoms: _118  and  _119
REMARK   48  A    between atoms: _125  and  _126
REMARK   49  A    between atoms: _131  and  _133
REMARK   50  A    between atoms: _133  and  _134
REMARK   51  A    between atoms: _133  and  _136
REMARK   52  A    between atoms: _136  and  _137
REMARK   53  A    between atoms: _137  and  _138
REMARK   54  A    between atoms: _138  and  _139
REMARK   55  A    between atoms: _148  and  _150
REMARK   56  A    between atoms: _150  and  _151
REMARK   57  A    between atoms: _153  and  _155
REMARK   58  A    between atoms: _155  and  _156
REMARK   59  A    between atoms: _155  and  _158
REMARK   60  A    between atoms: _158  and  _159
REMARK   61  A    between atoms: _159  and  _160
REMARK   62  A    between atoms: _163  and  _165
REMARK   63  A    between atoms: _165  and  _166
REMARK   64  A    between atoms: _165  and  _168
REMARK   65  A    between atoms: _168  and  _169
REMARK   66  A    between atoms: _169  and  _170
REMARK   67  A    between atoms: _173  and  _175
REMARK   68  A    between atoms: _175  and  _176
REMARK   69  A    between atoms: _178  and  _180
REMARK   70  A    between atoms: _180  and  _181
REMARK   71  A    between atoms: _184  and  _185
REMARK   72  A    between atoms: _190  and  _192
REMARK   73  A    between atoms: _192  and  _193
REMARK   74  A    between atoms: _192  and  _195
REMARK   75  A    between atoms: _195  and  _196
REMARK   76  A    between atoms: _206  and  _208
REMARK   77  A    between atoms: _208  and  _209
REMARK   78  A    between atoms: _208  and  _211
REMARK   79  A    between atoms: _213  and  _215
REMARK   80  A    between atoms: _215  and  _216
REMARK   81  A    between atoms: _215  and  _218
REMARK   82  A    between atoms: _218  and  _219
REMARK   83  A    between atoms: _225  and  _227
REMARK   84  A    between atoms: _227  and  _228
REMARK   85  A    between atoms: _227  and  _230
REMARK   86  A    between atoms: _230  and  _231
REMARK   87  A    between atoms: _231  and  _232
REMARK   88  A    between atoms: _232  and  _233
REMARK   89  A    between atoms: _242  and  _244
REMARK   90  A    between atoms: _244  and  _245
REMARK   91  A    between atoms: _244  and  _247
REMARK   92  A    between atoms: _247  and  _248
REMARK   93  A    between atoms: _253  and  _254
REMARK   94  A    between atoms: _256  and  _258
REMARK   95  A    between atoms: _258  and  _259
REMARK   96  A    between atoms: _258  and  _261
REMARK   97  A    between atoms: _261  and  _262
REMARK   98  A    between atoms: _262  and  _263
REMARK   99  A    between atoms: _266  and  _268
REMARK  100  A    between atoms: _268  and  _269
REMARK  101  A    between atoms: _268  and  _271
REMARK  102  A    between atoms: _274  and  _276
REMARK  103  A    between atoms: _276  and  _277
REMARK  104  A    between atoms: _276  and  _279
REMARK                            x       y       z     vdW  Elec       q    Type
REMARK                         _______ _______ _______ _____ _____    ______ ____
ROOT
ATOM      1  O   HOH     1       5.225  29.419 -12.993  0.00  0.00    +0.000 OA
ENDROOT
TORSDOF 0
REMARK  Name = ../refined-set-2016/5cs3/5cs3_pocket.pdb
REMARK  104 active torsions:
REMARK  status: ('A' for Active; 'I' for Inactive)
REMARK    1  A    between atoms: _1  and  _3
REMARK    2  A    between atoms: _3  and  _4
REMARK    3  A    between atoms: _3  and  _6
REMARK    4  A    between atoms: _6  and  _7
REMARK    5  A    between atoms: _7  and  _8
REMARK    6  A    between atoms: _8  and  _9
REMARK    7  A    between atoms: _9  and  _10
REMARK    8  A    between atoms: _14  and  _16
REMARK    9  A    between atoms: _16  and  _17
REMARK   10  A    between atoms: _16  and  _19
REMARK   11  A    between atoms: _19  and  _20
REMARK   12  A    between atoms: _30  and  _32
REMARK   13  A    between atoms: _32  and  _33
REMARK   14  A    between atoms: _32  and  _35
REMARK   15  A    between atoms: _35  and  _36
REMARK   16  A    between atoms: _41  and  _43
REMARK   17  A    between atoms: _43  and  _44
REMARK   18  A    between atoms: _43  and  _46
REMARK   19  A    between atoms: _46  and  _47
REMARK   20  A    between atoms: _47  and  _48
REMARK   21  A    between atoms: _51  and  _53
REMARK   22  A    between atoms: _53  and  _54
REMARK   23  A    between atoms: _53  and  _56
REMARK   24  A    between atoms: _56  and  _57
REMARK   25  A    between atoms: _62  and  _64
REMARK   26  A    between atoms: _64  and  _65
REMARK   27  A    between atoms: _64  and  _67
REMARK   28  A    between atoms: _67  and  _68
REMARK   29  A    between atoms: _70  and  _72
REMARK   30  A    between atoms: _72  and  _73
REMARK   31  A    between atoms: _72  and  _75
REMARK   32  A    between atoms: _75  and  _76
REMARK   33  A    between atoms: _82  and  _84
REMARK   34  A    between atoms: _84  and  _85
REMARK   35  A    between atoms: _84  and  _87
REMARK   36  A    between atoms: _87  and  _88
REMARK   37  A    between atoms: _93  and  _94
REMARK   38  A    between atoms: _96  and  _98
REMARK   39  A    between atoms: _98  and  _99
REMARK   40  A    between atoms: _98  and  _101
REMARK   41  A    between atoms: _101  and  _102
REMARK   42  A    between atoms: _102  and  _103
REMARK   43  A    between atoms: _103  and  _104
REMARK   44  A    between atoms: _113  and  _115
REMARK   45  A    between atoms: _115  and  _116
REMARK   46  A    between atoms: _115  and  _118
REMARK   47  A    between atoms: _118  and  _119
REMARK   48  A    between atoms: _125  and  _126
REMARK   49  A    between atoms: _131  and  _133
REMARK   50  A    between atoms: _133  and  _134
REMARK   51  A    between atoms: _133  and  _136
REMARK   52  A    between atoms: _136  and  _137
REMARK   53  A    between atoms: _137  and  _138
REMARK   54  A    between atoms: _138  and  _139
REMARK   55  A    between atoms: _148  and  _150
REMARK   56  A    between atoms: _150  and  _151
REMARK   57  A    between atoms: _153  and  _155
REMARK   58  A    between atoms: _155  and  _156
REMARK   59  A    between atoms: _155  and  _158
REMARK   60  A    between atoms: _158  and  _159
REMARK   61  A    between atoms: _159  and  _160
REMARK   62  A    between atoms: _163  and  _165
REMARK   63  A    between atoms: _165  and  _166
REMARK   64  A    between atoms: _165  and  _168
REMARK   65  A    between atoms: _168  and  _169
REMARK   66  A    between atoms: _169  and  _170
REMARK   67  A    between atoms: _173  and  _175
REMARK   68  A    between atoms: _175  and  _176
REMARK   69  A    between atoms: _178  and  _180
REMARK   70  A    between atoms: _180  and  _181
REMARK   71  A    between atoms: _184  and  _185
REMARK   72  A    between atoms: _190  and  _192
REMARK   73  A    between atoms: _192  and  _193
REMARK   74  A    between atoms: _192  and  _195
REMARK   75  A    between atoms: _195  and  _196
REMARK   76  A    between atoms: _206  and  _208
REMARK   77  A    between atoms: _208  and  _209
REMARK   78  A    between atoms: _208  and  _211
REMARK   79  A    between atoms: _213  and  _215
REMARK   80  A    between atoms: _215  and  _216
REMARK   81  A    between atoms: _215  and  _218
REMARK   82  A    between atoms: _218  and  _219
REMARK   83  A    between atoms: _225  and  _227
REMARK   84  A    between atoms: _227  and  _228
REMARK   85  A    between atoms: _227  and  _230
REMARK   86  A    between atoms: _230  and  _231
REMARK   87  A    between atoms: _231  and  _232
REMARK   88  A    between atoms: _232  and  _233
REMARK   89  A    between atoms: _242  and  _244
REMARK   90  A    between atoms: _244  and  _245
REMARK   91  A    between atoms: _244  and  _247
REMARK   92  A    between atoms: _247  and  _248
REMARK   93  A    between atoms: _253  and  _254
REMARK   94  A    between atoms: _256  and  _258
REMARK   95  A    between atoms: _258  and  _259
REMARK   96  A    between atoms: _258  and  _261
REMARK   97  A    between atoms: _261  and  _262
REMARK   98  A    between atoms: _262  and  _263
REMARK   99  A    between atoms: _266  and  _268
REMARK  100  A    between atoms: _268  and  _269
REMARK  101  A    between atoms: _268  and  _271
REMARK  102  A    between atoms: _274  and  _276
REMARK  103  A    between atoms: _276  and  _277
REMARK  104  A    between atoms: _276  and  _279
REMARK                            x       y       z     vdW  Elec       q    Type
REMARK                         _______ _______ _______ _____ _____    ______ ____
ROOT
ATOM      1  O   HOH     1       5.388  27.664 -10.814  0.00  0.00    +0.000 OA
ENDROOT
TORSDOF 0
REMARK  Name = ../refined-set-2016/5cs3/5cs3_pocket.pdb
REMARK  104 active torsions:
REMARK  status: ('A' for Active; 'I' for Inactive)
REMARK    1  A    between atoms: _1  and  _3
REMARK    2  A    between atoms: _3  and  _4
REMARK    3  A    between atoms: _3  and  _6
REMARK    4  A    between atoms: _6  and  _7
REMARK    5  A    between atoms: _7  and  _8
REMARK    6  A    between atoms: _8  and  _9
REMARK    7  A    between atoms: _9  and  _10
REMARK    8  A    between atoms: _14  and  _16
REMARK    9  A    between atoms: _16  and  _17
REMARK   10  A    between atoms: _16  and  _19
REMARK   11  A    between atoms: _19  and  _20
REMARK   12  A    between atoms: _30  and  _32
REMARK   13  A    between atoms: _32  and  _33
REMARK   14  A    between atoms: _32  and  _35
REMARK   15  A    between atoms: _35  and  _36
REMARK   16  A    between atoms: _41  and  _43
REMARK   17  A    between atoms: _43  and  _44
REMARK   18  A    between atoms: _43  and  _46
REMARK   19  A    between atoms: _46  and  _47
REMARK   20  A    between atoms: _47  and  _48
REMARK   21  A    between atoms: _51  and  _53
REMARK   22  A    between atoms: _53  and  _54
REMARK   23  A    between atoms: _53  and  _56
REMARK   24  A    between atoms: _56  and  _57
REMARK   25  A    between atoms: _62  and  _64
REMARK   26  A    between atoms: _64  and  _65
REMARK   27  A    between atoms: _64  and  _67
REMARK   28  A    between atoms: _67  and  _68
REMARK   29  A    between atoms: _70  and  _72
REMARK   30  A    between atoms: _72  and  _73
REMARK   31  A    between atoms: _72  and  _75
REMARK   32  A    between atoms: _75  and  _76
REMARK   33  A    between atoms: _82  and  _84
REMARK   34  A    between atoms: _84  and  _85
REMARK   35  A    between atoms: _84  and  _87
REMARK   36  A    between atoms: _87  and  _88
REMARK   37  A    between atoms: _93  and  _94
REMARK   38  A    between atoms: _96  and  _98
REMARK   39  A    between atoms: _98  and  _99
REMARK   40  A    between atoms: _98  and  _101
REMARK   41  A    between atoms: _101  and  _102
REMARK   42  A    between atoms: _102  and  _103
REMARK   43  A    between atoms: _103  and  _104
REMARK   44  A    between atoms: _113  and  _115
REMARK   45  A    between atoms: _115  and  _116
REMARK   46  A    between atoms: _115  and  _118
REMARK   47  A    between atoms: _118  and  _119
REMARK   48  A    between atoms: _125  and  _126
REMARK   49  A    between atoms: _131  and  _133
REMARK   50  A    between atoms: _133  and  _134
REMARK   51  A    between atoms: _133  and  _136
REMARK   52  A    between atoms: _136  and  _137
REMARK   53  A    between atoms: _137  and  _138
REMARK   54  A    between atoms: _138  and  _139
REMARK   55  A    between atoms: _148  and  _150
REMARK   56  A    between atoms: _150  and  _151
REMARK   57  A    between atoms: _153  and  _155
REMARK   58  A    between atoms: _155  and  _156
REMARK   59  A    between atoms: _155  and  _158
REMARK   60  A    between atoms: _158  and  _159
REMARK   61  A    between atoms: _159  and  _160
REMARK   62  A    between atoms: _163  and  _165
REMARK   63  A    between atoms: _165  and  _166
REMARK   64  A    between atoms: _165  and  _168
REMARK   65  A    between atoms: _168  and  _169
REMARK   66  A    between atoms: _169  and  _170
REMARK   67  A    between atoms: _173  and  _175
REMARK   68  A    between atoms: _175  and  _176
REMARK   69  A    between atoms: _178  and  _180
REMARK   70  A    between atoms: _180  and  _181
REMARK   71  A    between atoms: _184  and  _185
REMARK   72  A    between atoms: _190  and  _192
REMARK   73  A    between atoms: _192  and  _193
REMARK   74  A    between atoms: _192  and  _195
REMARK   75  A    between atoms: _195  and  _196
REMARK   76  A    between atoms: _206  and  _208
REMARK   77  A    between atoms: _208  and  _209
REMARK   78  A    between atoms: _208  and  _211
REMARK   79  A    between atoms: _213  and  _215
REMARK   80  A    between atoms: _215  and  _216
REMARK   81  A    between atoms: _215  and  _218
REMARK   82  A    between atoms: _218  and  _219
REMARK   83  A    between atoms: _225  and  _227
REMARK   84  A    between atoms: _227  and  _228
REMARK   85  A    between atoms: _227  and  _230
REMARK   86  A    between atoms: _230  and  _231
REMARK   87  A    between atoms: _231  and  _232
REMARK   88  A    between atoms: _232  and  _233
REMARK   89  A    between atoms: _242  and  _244
REMARK   90  A    between atoms: _244  and  _245
REMARK   91  A    between atoms: _244  and  _247
REMARK   92  A    between atoms: _247  and  _248
REMARK   93  A    between atoms: _253  and  _254
REMARK   94  A    between atoms: _256  and  _258
REMARK   95  A    between atoms: _258  and  _259
REMARK   96  A    between atoms: _258  and  _261
REMARK   97  A    between atoms: _261  and  _262
REMARK   98  A    between atoms: _262  and  _263
REMARK   99  A    between atoms: _266  and  _268
REMARK  100  A    between atoms: _268  and  _269
REMARK  101  A    between atoms: _268  and  _271
REMARK  102  A    between atoms: _274  and  _276
REMARK  103  A    between atoms: _276  and  _277
REMARK  104  A    between atoms: _276  and  _279
REMARK                            x       y       z     vdW  Elec       q    Type
REMARK                         _______ _______ _______ _____ _____    ______ ____
ROOT
ATOM      1  O   HOH     1     -12.266  24.520 -13.150  0.00  0.00    +0.000 OA
ENDROOT
TORSDOF 0
REMARK  Name = ../refined-set-2016/5cs3/5cs3_pocket.pdb
REMARK  104 active torsions:
REMARK  status: ('A' for Active; 'I' for Inactive)
REMARK    1  A    between atoms: _1  and  _3
REMARK    2  A    between atoms: _3  and  _4
REMARK    3  A    between atoms: _3  and  _6
REMARK    4  A    between atoms: _6  and  _7
REMARK    5  A    between atoms: _7  and  _8
REMARK    6  A    between atoms: _8  and  _9
REMARK    7  A    between atoms: _9  and  _10
REMARK    8  A    between atoms: _14  and  _16
REMARK    9  A    between atoms: _16  and  _17
REMARK   10  A    between atoms: _16  and  _19
REMARK   11  A    between atoms: _19  and  _20
REMARK   12  A    between atoms: _30  and  _32
REMARK   13  A    between atoms: _32  and  _33
REMARK   14  A    between atoms: _32  and  _35
REMARK   15  A    between atoms: _35  and  _36
REMARK   16  A    between atoms: _41  and  _43
REMARK   17  A    between atoms: _43  and  _44
REMARK   18  A    between atoms: _43  and  _46
REMARK   19  A    between atoms: _46  and  _47
REMARK   20  A    between atoms: _47  and  _48
REMARK   21  A    between atoms: _51  and  _53
REMARK   22  A    between atoms: _53  and  _54
REMARK   23  A    between atoms: _53  and  _56
REMARK   24  A    between atoms: _56  and  _57
REMARK   25  A    between atoms: _62  and  _64
REMARK   26  A    between atoms: _64  and  _65
REMARK   27  A    between atoms: _64  and  _67
REMARK   28  A    between atoms: _67  and  _68
REMARK   29  A    between atoms: _70  and  _72
REMARK   30  A    between atoms: _72  and  _73
REMARK   31  A    between atoms: _72  and  _75
REMARK   32  A    between atoms: _75  and  _76
REMARK   33  A    between atoms: _82  and  _84
REMARK   34  A    between atoms: _84  and  _85
REMARK   35  A    between atoms: _84  and  _87
REMARK   36  A    between atoms: _87  and  _88
REMARK   37  A    between atoms: _93  and  _94
REMARK   38  A    between atoms: _96  and  _98
REMARK   39  A    between atoms: _98  and  _99
REMARK   40  A    between atoms: _98  and  _101
REMARK   41  A    between atoms: _101  and  _102
REMARK   42  A    between atoms: _102  and  _103
REMARK   43  A    between atoms: _103  and  _104
REMARK   44  A    between atoms: _113  and  _115
REMARK   45  A    between atoms: _115  and  _116
REMARK   46  A    between atoms: _115  and  _118
REMARK   47  A    between atoms: _118  and  _119
REMARK   48  A    between atoms: _125  and  _126
REMARK   49  A    between atoms: _131  and  _133
REMARK   50  A    between atoms: _133  and  _134
REMARK   51  A    between atoms: _133  and  _136
REMARK   52  A    between atoms: _136  and  _137
REMARK   53  A    between atoms: _137  and  _138
REMARK   54  A    between atoms: _138  and  _139
REMARK   55  A    between atoms: _148  and  _150
REMARK   56  A    between atoms: _150  and  _151
REMARK   57  A    between atoms: _153  and  _155
REMARK   58  A    between atoms: _155  and  _156
REMARK   59  A    between atoms: _155  and  _158
REMARK   60  A    between atoms: _158  and  _159
REMARK   61  A    between atoms: _159  and  _160
REMARK   62  A    between atoms: _163  and  _165
REMARK   63  A    between atoms: _165  and  _166
REMARK   64  A    between atoms: _165  and  _168
REMARK   65  A    between atoms: _168  and  _169
REMARK   66  A    between atoms: _169  and  _170
REMARK   67  A    between atoms: _173  and  _175
REMARK   68  A    between atoms: _175  and  _176
REMARK   69  A    between atoms: _178  and  _180
REMARK   70  A    between atoms: _180  and  _181
REMARK   71  A    between atoms: _184  and  _185
REMARK   72  A    between atoms: _190  and  _192
REMARK   73  A    between atoms: _192  and  _193
REMARK   74  A    between atoms: _192  and  _195
REMARK   75  A    between atoms: _195  and  _196
REMARK   76  A    between atoms: _206  and  _208
REMARK   77  A    between atoms: _208  and  _209
REMARK   78  A    between atoms: _208  and  _211
REMARK   79  A    between atoms: _213  and  _215
REMARK   80  A    between atoms: _215  and  _216
REMARK   81  A    between atoms: _215  and  _218
REMARK   82  A    between atoms: _218  and  _219
REMARK   83  A    between atoms: _225  and  _227
REMARK   84  A    between atoms: _227  and  _228
REMARK   85  A    between atoms: _227  and  _230
REMARK   86  A    between atoms: _230  and  _231
REMARK   87  A    between atoms: _231  and  _232
REMARK   88  A    between atoms: _232  and  _233
REMARK   89  A    between atoms: _242  and  _244
REMARK   90  A    between atoms: _244  and  _245
REMARK   91  A    between atoms: _244  and  _247
REMARK   92  A    between atoms: _247  and  _248
REMARK   93  A    between atoms: _253  and  _254
REMARK   94  A    between atoms: _256  and  _258
REMARK   95  A    between atoms: _258  and  _259
REMARK   96  A    between atoms: _258  and  _261
REMARK   97  A    between atoms: _261  and  _262
REMARK   98  A    between atoms: _262  and  _263
REMARK   99  A    between atoms: _266  and  _268
REMARK  100  A    between atoms: _268  and  _269
REMARK  101  A    between atoms: _268  and  _271
REMARK  102  A    between atoms: _274  and  _276
REMARK  103  A    between atoms: _276  and  _277
REMARK  104  A    between atoms: _276  and  _279
REMARK                            x       y       z     vdW  Elec       q    Type
REMARK                         _______ _______ _______ _____ _____    ______ ____
ROOT
ATOM      1  O   HOH     1      -7.653  36.389 -17.378  0.00  0.00    +0.000 OA
ENDROOT
TORSDOF 0
