REMARK  Name = ../refined-set-2016/1d4l/1d4l_pocket.pdb
REMARK  210 active torsions:
REMARK  status: ('A' for Active; 'I' for Inactive)
REMARK    1  A    between atoms: _1  and  _3
REMARK    2  A    between atoms: _3  and  _4
REMARK    3  A    between atoms: _3  and  _6
REMARK    4  A    between atoms: _6  and  _7
REMARK    5  A    between atoms: _7  and  _8
REMARK    6  A    between atoms: _8  and  _9
REMARK    7  A    between atoms: _18  and  _20
REMARK    8  A    between atoms: _20  and  _21
REMARK    9  A    between atoms: _20  and  _23
REMARK   10  A    between atoms: _23  and  _24
REMARK   11  A    between atoms: _27  and  _29
REMARK   12  A    between atoms: _29  and  _30
REMARK   13  A    between atoms: _29  and  _32
REMARK   14  A    between atoms: _32  and  _33
REMARK   15  A    between atoms: _36  and  _38
REMARK   16  A    between atoms: _38  and  _39
REMARK   17  A    between atoms: _38  and  _41
REMARK   18  A    between atoms: _41  and  _42
REMARK   19  A    between atoms: _45  and  _47
REMARK   20  A    between atoms: _47  and  _48
REMARK   21  A    between atoms: _47  and  _50
REMARK   22  A    between atoms: _50  and  _51
REMARK   23  A    between atoms: _54  and  _56
REMARK   24  A    between atoms: _56  and  _57
REMARK   25  A    between atoms: _59  and  _61
REMARK   26  A    between atoms: _61  and  _62
REMARK   27  A    between atoms: _65  and  _67
REMARK   28  A    between atoms: _67  and  _68
REMARK   29  A    between atoms: _67  and  _70
REMARK   30  A    between atoms: _70  and  _71
REMARK   31  A    between atoms: _74  and  _76
REMARK   32  A    between atoms: _76  and  _77
REMARK   33  A    between atoms: _76  and  _79
REMARK   34  A    between atoms: _79  and  _80
REMARK   35  A    between atoms: _83  and  _85
REMARK   36  A    between atoms: _85  and  _86
REMARK   37  A    between atoms: _85  and  _88
REMARK   38  A    between atoms: _88  and  _89
REMARK   39  A    between atoms: _92  and  _94
REMARK   40  A    between atoms: _94  and  _95
REMARK   41  A    between atoms: _94  and  _97
REMARK   42  A    between atoms: _100  and  _102
REMARK   43  A    between atoms: _102  and  _103
REMARK   44  A    between atoms: _102  and  _105
REMARK   45  A    between atoms: _105  and  _106
REMARK   46  A    between atoms: _109  and  _111
REMARK   47  A    between atoms: _111  and  _112
REMARK   48  A    between atoms: _114  and  _116
REMARK   49  A    between atoms: _116  and  _117
REMARK   50  A    between atoms: _119  and  _121
REMARK   51  A    between atoms: _121  and  _122
REMARK   52  A    between atoms: _121  and  _124
REMARK   53  A    between atoms: _124  and  _125
REMARK   54  A    between atoms: _128  and  _130
REMARK   55  A    between atoms: _130  and  _131
REMARK   56  A    between atoms: _133  and  _135
REMARK   57  A    between atoms: _135  and  _136
REMARK   58  A    between atoms: _138  and  _140
REMARK   59  A    between atoms: _140  and  _141
REMARK   60  A    between atoms: _140  and  _143
REMARK   61  A    between atoms: _143  and  _144
REMARK   62  A    between atoms: _150  and  _152
REMARK   63  A    between atoms: _152  and  _153
REMARK   64  A    between atoms: _152  and  _155
REMARK   65  A    between atoms: _155  and  _156
REMARK   66  A    between atoms: _159  and  _161
REMARK   67  A    between atoms: _161  and  _162
REMARK   68  A    between atoms: _161  and  _164
REMARK   69  A    between atoms: _164  and  _165
REMARK   70  A    between atoms: _169  and  _170
REMARK   71  A    between atoms: _175  and  _177
REMARK   72  A    between atoms: _177  and  _178
REMARK   73  A    between atoms: _177  and  _180
REMARK   74  A    between atoms: _180  and  _181
REMARK   75  A    between atoms: _185  and  _186
REMARK   76  A    between atoms: _191  and  _193
REMARK   77  A    between atoms: _193  and  _194
REMARK   78  A    between atoms: _193  and  _196
REMARK   79  A    between atoms: _199  and  _201
REMARK   80  A    between atoms: _201  and  _202
REMARK   81  A    between atoms: _201  and  _204
REMARK   82  A    between atoms: _204  and  _205
REMARK   83  A    between atoms: _210  and  _212
REMARK   84  A    between atoms: _212  and  _213
REMARK   85  A    between atoms: _212  and  _215
REMARK   86  A    between atoms: _215  and  _216
REMARK   87  A    between atoms: _219  and  _221
REMARK   88  A    between atoms: _221  and  _222
REMARK   89  A    between atoms: _221  and  _224
REMARK   90  A    between atoms: _224  and  _225
REMARK   91  A    between atoms: _228  and  _230
REMARK   92  A    between atoms: _230  and  _231
REMARK   93  A    between atoms: _233  and  _235
REMARK   94  A    between atoms: _235  and  _236
REMARK   95  A    between atoms: _235  and  _238
REMARK   96  A    between atoms: _238  and  _239
REMARK   97  A    between atoms: _239  and  _240
REMARK   98  A    between atoms: _240  and  _241
REMARK   99  A    between atoms: _250  and  _252
REMARK  100  A    between atoms: _252  and  _253
REMARK  101  A    between atoms: _252  and  _255
REMARK  102  A    between atoms: _255  and  _256
REMARK  103  A    between atoms: _256  and  _257
REMARK  104  A    between atoms: _257  and  _258
REMARK  105  A    between atoms: _267  and  _269
REMARK  106  A    between atoms: _269  and  _270
REMARK  107  A    between atoms: _269  and  _272
REMARK  108  A    between atoms: _272  and  _273
REMARK  109  A    between atoms: _276  and  _278
REMARK  110  A    between atoms: _278  and  _279
REMARK  111  A    between atoms: _278  and  _281
REMARK  112  A    between atoms: _281  and  _282
REMARK  113  A    between atoms: _285  and  _287
REMARK  114  A    between atoms: _287  and  _288
REMARK  115  A    between atoms: _287  and  _290
REMARK  116  A    between atoms: _290  and  _291
REMARK  117  A    between atoms: _294  and  _296
REMARK  118  A    between atoms: _296  and  _297
REMARK  119  A    between atoms: _296  and  _299
REMARK  120  A    between atoms: _299  and  _300
REMARK  121  A    between atoms: _303  and  _305
REMARK  122  A    between atoms: _305  and  _306
REMARK  123  A    between atoms: _308  and  _310
REMARK  124  A    between atoms: _310  and  _311
REMARK  125  A    between atoms: _314  and  _316
REMARK  126  A    between atoms: _316  and  _317
REMARK  127  A    between atoms: _316  and  _319
REMARK  128  A    between atoms: _319  and  _320
REMARK  129  A    between atoms: _323  and  _325
REMARK  130  A    between atoms: _325  and  _326
REMARK  131  A    between atoms: _325  and  _328
REMARK  132  A    between atoms: _328  and  _329
REMARK  133  A    between atoms: _332  and  _334
REMARK  134  A    between atoms: _334  and  _335
REMARK  135  A    between atoms: _334  and  _337
REMARK  136  A    between atoms: _337  and  _338
REMARK  137  A    between atoms: _341  and  _343
REMARK  138  A    between atoms: _343  and  _344
REMARK  139  A    between atoms: _343  and  _346
REMARK  140  A    between atoms: _349  and  _351
REMARK  141  A    between atoms: _351  and  _352
REMARK  142  A    between atoms: _351  and  _354
REMARK  143  A    between atoms: _354  and  _355
REMARK  144  A    between atoms: _355  and  _356
REMARK  145  A    between atoms: _356  and  _357
REMARK  146  A    between atoms: _357  and  _358
REMARK  147  A    between atoms: _362  and  _364
REMARK  148  A    between atoms: _364  and  _365
REMARK  149  A    between atoms: _364  and  _367
REMARK  150  A    between atoms: _367  and  _368
REMARK  151  A    between atoms: _368  and  _369
REMARK  152  A    between atoms: _371  and  _373
REMARK  153  A    between atoms: _373  and  _374
REMARK  154  A    between atoms: _373  and  _376
REMARK  155  A    between atoms: _376  and  _377
REMARK  156  A    between atoms: _380  and  _382
REMARK  157  A    between atoms: _382  and  _383
REMARK  158  A    between atoms: _385  and  _387
REMARK  159  A    between atoms: _387  and  _388
REMARK  160  A    between atoms: _390  and  _392
REMARK  161  A    between atoms: _392  and  _393
REMARK  162  A    between atoms: _392  and  _395
REMARK  163  A    between atoms: _395  and  _396
REMARK  164  A    between atoms: _399  and  _401
REMARK  165  A    between atoms: _401  and  _402
REMARK  166  A    between atoms: _404  and  _406
REMARK  167  A    between atoms: _406  and  _407
REMARK  168  A    between atoms: _409  and  _411
REMARK  169  A    between atoms: _411  and  _412
REMARK  170  A    between atoms: _411  and  _414
REMARK  171  A    between atoms: _414  and  _415
REMARK  172  A    between atoms: _418  and  _420
REMARK  173  A    between atoms: _420  and  _421
REMARK  174  A    between atoms: _420  and  _423
REMARK  175  A    between atoms: _426  and  _428
REMARK  176  A    between atoms: _428  and  _429
REMARK  177  A    between atoms: _428  and  _431
REMARK  178  A    between atoms: _431  and  _432
REMARK  179  A    between atoms: _435  and  _437
REMARK  180  A    between atoms: _437  and  _438
REMARK  181  A    between atoms: _437  and  _440
REMARK  182  A    between atoms: _440  and  _441
REMARK  183  A    between atoms: _445  and  _446
REMARK  184  A    between atoms: _451  and  _453
REMARK  185  A    between atoms: _453  and  _454
REMARK  186  A    between atoms: _453  and  _456
REMARK  187  A    between atoms: _459  and  _461
REMARK  188  A    between atoms: _461  and  _462
REMARK  189  A    between atoms: _461  and  _464
REMARK  190  A    between atoms: _464  and  _465
REMARK  191  A    between atoms: _470  and  _472
REMARK  192  A    between atoms: _472  and  _473
REMARK  193  A    between atoms: _472  and  _475
REMARK  194  A    between atoms: _475  and  _476
REMARK  195  A    between atoms: _479  and  _481
REMARK  196  A    between atoms: _481  and  _482
REMARK  197  A    between atoms: _481  and  _484
REMARK  198  A    between atoms: _484  and  _485
REMARK  199  A    between atoms: _488  and  _490
REMARK  200  A    between atoms: _490  and  _491
REMARK  201  A    between atoms: _493  and  _495
REMARK  202  A    between atoms: _495  and  _496
REMARK  203  A    between atoms: _495  and  _498
REMARK  204  A    between atoms: _498  and  _499
REMARK  205  A    between atoms: _499  and  _500
REMARK  206  A    between atoms: _500  and  _501
REMARK  207  A    between atoms: _510  and  _512
REMARK  208  A    between atoms: _512  and  _513
REMARK  209  A    between atoms: _512  and  _515
REMARK  210  A    between atoms: _515  and  _516
REMARK                            x       y       z     vdW  Elec       q    Type
REMARK                         _______ _______ _______ _____ _____    ______ ____
ROOT
ATOM      1  NE  ARG A   1       3.458  -7.190  22.553  0.00  0.00    -0.265 N 
ATOM      2  HE  ARG A   1       4.415  -6.915  22.253  0.00  0.00    +0.259 HD
ATOM      3  CZ  ARG A   1       2.574  -7.533  21.617  0.00  0.00    +0.342 C 
ATOM      4  NH2 ARG A   1       1.336  -7.890  21.963  0.00  0.00    -0.292 N 
ATOM      5 HH21 ARG A   1       1.059  -7.901  22.965  0.00  0.00    +0.255 HD
ATOM      6 HH22 ARG A   1       0.648  -8.157  21.230  0.00  0.00    +0.255 HD
ATOM      7  NH1 ARG A   1       2.928  -7.536  20.338  0.00  0.00    -0.292 N 
ATOM      8 HH11 ARG A   1       3.896  -7.271  20.066  0.00  0.00    +0.255 HD
ATOM      9 HH12 ARG A   1       2.237  -7.804  19.608  0.00  0.00    +0.255 HD
ENDROOT
BRANCH   1  10
ATOM     10  CD  ARG A   1       3.147  -7.181  23.984  0.00  0.00    +0.174 C 
BRANCH  10  11
ATOM     11  CG  ARG A   1       3.811  -6.070  24.740  0.00  0.00    +0.045 C 
BRANCH  11  12
ATOM     12  CB  ARG A   1       2.854  -5.564  25.785  0.00  0.00    +0.029 C 
BRANCH  12  13
ATOM     13  CA  ARG A   1       3.466  -4.597  26.795  0.00  0.00    +0.133 C 
BRANCH  13  14
ATOM     14  N   ARG A   1       4.052  -5.324  27.941  0.00  0.00    -0.239 NA
ATOM     15  H   ARG A   1       3.986  -6.361  27.980  0.00  0.00    +0.142 HD
ENDBRANCH  13  14
BRANCH  13  16
ATOM     16  C   ARG A   1       2.365  -3.706  27.351  0.00  0.00    +0.224 C 
ATOM     17  O   ARG A   1       1.611  -4.122  28.230  0.00  0.00    -0.287 OA
ENDBRANCH  13  16
ENDBRANCH  12  13
ENDBRANCH  11  12
ENDBRANCH  10  11
ENDBRANCH   1  10
TORSDOF 6
REMARK  Name = ../refined-set-2016/1d4l/1d4l_pocket.pdb
REMARK  210 active torsions:
REMARK  status: ('A' for Active; 'I' for Inactive)
REMARK    1  A    between atoms: _1  and  _3
REMARK    2  A    between atoms: _3  and  _4
REMARK    3  A    between atoms: _3  and  _6
REMARK    4  A    between atoms: _6  and  _7
REMARK    5  A    between atoms: _7  and  _8
REMARK    6  A    between atoms: _8  and  _9
REMARK    7  A    between atoms: _18  and  _20
REMARK    8  A    between atoms: _20  and  _21
REMARK    9  A    between atoms: _20  and  _23
REMARK   10  A    between atoms: _23  and  _24
REMARK   11  A    between atoms: _27  and  _29
REMARK   12  A    between atoms: _29  and  _30
REMARK   13  A    between atoms: _29  and  _32
REMARK   14  A    between atoms: _32  and  _33
REMARK   15  A    between atoms: _36  and  _38
REMARK   16  A    between atoms: _38  and  _39
REMARK   17  A    between atoms: _38  and  _41
REMARK   18  A    between atoms: _41  and  _42
REMARK   19  A    between atoms: _45  and  _47
REMARK   20  A    between atoms: _47  and  _48
REMARK   21  A    between atoms: _47  and  _50
REMARK   22  A    between atoms: _50  and  _51
REMARK   23  A    between atoms: _54  and  _56
REMARK   24  A    between atoms: _56  and  _57
REMARK   25  A    between atoms: _59  and  _61
REMARK   26  A    between atoms: _61  and  _62
REMARK   27  A    between atoms: _65  and  _67
REMARK   28  A    between atoms: _67  and  _68
REMARK   29  A    between atoms: _67  and  _70
REMARK   30  A    between atoms: _70  and  _71
REMARK   31  A    between atoms: _74  and  _76
REMARK   32  A    between atoms: _76  and  _77
REMARK   33  A    between atoms: _76  and  _79
REMARK   34  A    between atoms: _79  and  _80
REMARK   35  A    between atoms: _83  and  _85
REMARK   36  A    between atoms: _85  and  _86
REMARK   37  A    between atoms: _85  and  _88
REMARK   38  A    between atoms: _88  and  _89
REMARK   39  A    between atoms: _92  and  _94
REMARK   40  A    between atoms: _94  and  _95
REMARK   41  A    between atoms: _94  and  _97
REMARK   42  A    between atoms: _100  and  _102
REMARK   43  A    between atoms: _102  and  _103
REMARK   44  A    between atoms: _102  and  _105
REMARK   45  A    between atoms: _105  and  _106
REMARK   46  A    between atoms: _109  and  _111
REMARK   47  A    between atoms: _111  and  _112
REMARK   48  A    between atoms: _114  and  _116
REMARK   49  A    between atoms: _116  and  _117
REMARK   50  A    between atoms: _119  and  _121
REMARK   51  A    between atoms: _121  and  _122
REMARK   52  A    between atoms: _121  and  _124
REMARK   53  A    between atoms: _124  and  _125
REMARK   54  A    between atoms: _128  and  _130
REMARK   55  A    between atoms: _130  and  _131
REMARK   56  A    between atoms: _133  and  _135
REMARK   57  A    between atoms: _135  and  _136
REMARK   58  A    between atoms: _138  and  _140
REMARK   59  A    between atoms: _140  and  _141
REMARK   60  A    between atoms: _140  and  _143
REMARK   61  A    between atoms: _143  and  _144
REMARK   62  A    between atoms: _150  and  _152
REMARK   63  A    between atoms: _152  and  _153
REMARK   64  A    between atoms: _152  and  _155
REMARK   65  A    between atoms: _155  and  _156
REMARK   66  A    between atoms: _159  and  _161
REMARK   67  A    between atoms: _161  and  _162
REMARK   68  A    between atoms: _161  and  _164
REMARK   69  A    between atoms: _164  and  _165
REMARK   70  A    between atoms: _169  and  _170
REMARK   71  A    between atoms: _175  and  _177
REMARK   72  A    between atoms: _177  and  _178
REMARK   73  A    between atoms: _177  and  _180
REMARK   74  A    between atoms: _180  and  _181
REMARK   75  A    between atoms: _185  and  _186
REMARK   76  A    between atoms: _191  and  _193
REMARK   77  A    between atoms: _193  and  _194
REMARK   78  A    between atoms: _193  and  _196
REMARK   79  A    between atoms: _199  and  _201
REMARK   80  A    between atoms: _201  and  _202
REMARK   81  A    between atoms: _201  and  _204
REMARK   82  A    between atoms: _204  and  _205
REMARK   83  A    between atoms: _210  and  _212
REMARK   84  A    between atoms: _212  and  _213
REMARK   85  A    between atoms: _212  and  _215
REMARK   86  A    between atoms: _215  and  _216
REMARK   87  A    between atoms: _219  and  _221
REMARK   88  A    between atoms: _221  and  _222
REMARK   89  A    between atoms: _221  and  _224
REMARK   90  A    between atoms: _224  and  _225
REMARK   91  A    between atoms: _228  and  _230
REMARK   92  A    between atoms: _230  and  _231
REMARK   93  A    between atoms: _233  and  _235
REMARK   94  A    between atoms: _235  and  _236
REMARK   95  A    between atoms: _235  and  _238
REMARK   96  A    between atoms: _238  and  _239
REMARK   97  A    between atoms: _239  and  _240
REMARK   98  A    between atoms: _240  and  _241
REMARK   99  A    between atoms: _250  and  _252
REMARK  100  A    between atoms: _252  and  _253
REMARK  101  A    between atoms: _252  and  _255
REMARK  102  A    between atoms: _255  and  _256
REMARK  103  A    between atoms: _256  and  _257
REMARK  104  A    between atoms: _257  and  _258
REMARK  105  A    between atoms: _267  and  _269
REMARK  106  A    between atoms: _269  and  _270
REMARK  107  A    between atoms: _269  and  _272
REMARK  108  A    between atoms: _272  and  _273
REMARK  109  A    between atoms: _276  and  _278
REMARK  110  A    between atoms: _278  and  _279
REMARK  111  A    between atoms: _278  and  _281
REMARK  112  A    between atoms: _281  and  _282
REMARK  113  A    between atoms: _285  and  _287
REMARK  114  A    between atoms: _287  and  _288
REMARK  115  A    between atoms: _287  and  _290
REMARK  116  A    between atoms: _290  and  _291
REMARK  117  A    between atoms: _294  and  _296
REMARK  118  A    between atoms: _296  and  _297
REMARK  119  A    between atoms: _296  and  _299
REMARK  120  A    between atoms: _299  and  _300
REMARK  121  A    between atoms: _303  and  _305
REMARK  122  A    between atoms: _305  and  _306
REMARK  123  A    between atoms: _308  and  _310
REMARK  124  A    between atoms: _310  and  _311
REMARK  125  A    between atoms: _314  and  _316
REMARK  126  A    between atoms: _316  and  _317
REMARK  127  A    between atoms: _316  and  _319
REMARK  128  A    between atoms: _319  and  _320
REMARK  129  A    between atoms: _323  and  _325
REMARK  130  A    between atoms: _325  and  _326
REMARK  131  A    between atoms: _325  and  _328
REMARK  132  A    between atoms: _328  and  _329
REMARK  133  A    between atoms: _332  and  _334
REMARK  134  A    between atoms: _334  and  _335
REMARK  135  A    between atoms: _334  and  _337
REMARK  136  A    between atoms: _337  and  _338
REMARK  137  A    between atoms: _341  and  _343
REMARK  138  A    between atoms: _343  and  _344
REMARK  139  A    between atoms: _343  and  _346
REMARK  140  A    between atoms: _349  and  _351
REMARK  141  A    between atoms: _351  and  _352
REMARK  142  A    between atoms: _351  and  _354
REMARK  143  A    between atoms: _354  and  _355
REMARK  144  A    between atoms: _355  and  _356
REMARK  145  A    between atoms: _356  and  _357
REMARK  146  A    between atoms: _357  and  _358
REMARK  147  A    between atoms: _362  and  _364
REMARK  148  A    between atoms: _364  and  _365
REMARK  149  A    between atoms: _364  and  _367
REMARK  150  A    between atoms: _367  and  _368
REMARK  151  A    between atoms: _368  and  _369
REMARK  152  A    between atoms: _371  and  _373
REMARK  153  A    between atoms: _373  and  _374
REMARK  154  A    between atoms: _373  and  _376
REMARK  155  A    between atoms: _376  and  _377
REMARK  156  A    between atoms: _380  and  _382
REMARK  157  A    between atoms: _382  and  _383
REMARK  158  A    between atoms: _385  and  _387
REMARK  159  A    between atoms: _387  and  _388
REMARK  160  A    between atoms: _390  and  _392
REMARK  161  A    between atoms: _392  and  _393
REMARK  162  A    between atoms: _392  and  _395
REMARK  163  A    between atoms: _395  and  _396
REMARK  164  A    between atoms: _399  and  _401
REMARK  165  A    between atoms: _401  and  _402
REMARK  166  A    between atoms: _404  and  _406
REMARK  167  A    between atoms: _406  and  _407
REMARK  168  A    between atoms: _409  and  _411
REMARK  169  A    between atoms: _411  and  _412
REMARK  170  A    between atoms: _411  and  _414
REMARK  171  A    between atoms: _414  and  _415
REMARK  172  A    between atoms: _418  and  _420
REMARK  173  A    between atoms: _420  and  _421
REMARK  174  A    between atoms: _420  and  _423
REMARK  175  A    between atoms: _426  and  _428
REMARK  176  A    between atoms: _428  and  _429
REMARK  177  A    between atoms: _428  and  _431
REMARK  178  A    between atoms: _431  and  _432
REMARK  179  A    between atoms: _435  and  _437
REMARK  180  A    between atoms: _437  and  _438
REMARK  181  A    between atoms: _437  and  _440
REMARK  182  A    between atoms: _440  and  _441
REMARK  183  A    between atoms: _445  and  _446
REMARK  184  A    between atoms: _451  and  _453
REMARK  185  A    between atoms: _453  and  _454
REMARK  186  A    between atoms: _453  and  _456
REMARK  187  A    between atoms: _459  and  _461
REMARK  188  A    between atoms: _461  and  _462
REMARK  189  A    between atoms: _461  and  _464
REMARK  190  A    between atoms: _464  and  _465
REMARK  191  A    between atoms: _470  and  _472
REMARK  192  A    between atoms: _472  and  _473
REMARK  193  A    between atoms: _472  and  _475
REMARK  194  A    between atoms: _475  and  _476
REMARK  195  A    between atoms: _479  and  _481
REMARK  196  A    between atoms: _481  and  _482
REMARK  197  A    between atoms: _481  and  _484
REMARK  198  A    between atoms: _484  and  _485
REMARK  199  A    between atoms: _488  and  _490
REMARK  200  A    between atoms: _490  and  _491
REMARK  201  A    between atoms: _493  and  _495
REMARK  202  A    between atoms: _495  and  _496
REMARK  203  A    between atoms: _495  and  _498
REMARK  204  A    between atoms: _498  and  _499
REMARK  205  A    between atoms: _499  and  _500
REMARK  206  A    between atoms: _500  and  _501
REMARK  207  A    between atoms: _510  and  _512
REMARK  208  A    between atoms: _512  and  _513
REMARK  209  A    between atoms: _512  and  _515
REMARK  210  A    between atoms: _515  and  _516
REMARK                            x       y       z     vdW  Elec       q    Type
REMARK                         _______ _______ _______ _____ _____    ______ ____
ROOT
ATOM      1  C   GLY A   5       4.764   4.081  15.925  0.00  0.00    +0.243 C 
ATOM      2  N   ALA A   6       3.458   4.174  16.181  0.00  0.00    -0.297 N 
ATOM      3  H   ALA A   6       3.141   4.349  17.156  0.00  0.00    +0.150 HD
ATOM      4  O   GLY A   5       5.205   3.898  14.787  0.00  0.00    -0.273 OA
ENDROOT
BRANCH   2   5
ATOM      5  CA  ALA A   6       2.453   4.033  15.108  0.00  0.00    +0.149 C 
ATOM      6  CB  ALA A   6       1.388   3.028  15.515  0.00  0.00    +0.031 C 
BRANCH   5   7
ATOM      7  C   ALA A   6       1.807   5.369  14.793  0.00  0.00    +0.241 C 
ATOM      8  O   ALA A   6       1.309   6.047  15.699  0.00  0.00    -0.273 OA
ATOM      9  N   ASP A   7       1.813   5.756  13.520  0.00  0.00    -0.297 N 
ATOM     10  H   ASP A   7       2.258   5.157  12.795  0.00  0.00    +0.150 HD
BRANCH   9  11
ATOM     11  CA  ASP A   7       1.189   7.032  13.141  0.00  0.00    +0.160 C 
BRANCH  11  12
ATOM     12  C   ASP A   7      -0.314   6.934  13.289  0.00  0.00    +0.241 C 
ATOM     13  O   ASP A   7      -0.968   7.864  13.760  0.00  0.00    -0.273 OA
ATOM     14  N   ASP A   8      -0.828   5.763  12.930  0.00  0.00    -0.297 N 
ATOM     15  H   ASP A   8      -0.178   5.002  12.649  0.00  0.00    +0.150 HD
BRANCH  14  16
ATOM     16  CA  ASP A   8      -2.264   5.495  12.912  0.00  0.00    +0.160 C 
BRANCH  16  17
ATOM     17  C   ASP A   8      -2.710   4.387  13.836  0.00  0.00    +0.241 C 
ATOM     18  O   ASP A   8      -1.896   3.618  14.344  0.00  0.00    -0.273 OA
ATOM     19  N   THR A   9      -4.027   4.287  13.965  0.00  0.00    -0.295 N 
ATOM     20  H   THR A   9      -4.619   4.969  13.449  0.00  0.00    +0.150 HD
BRANCH  19  21
ATOM     21  CA  THR A   9      -4.700   3.280  14.786  0.00  0.00    +0.176 C 
BRANCH  21  22
ATOM     22  C   THR A   9      -5.223   2.182  13.851  0.00  0.00    +0.243 C 
ATOM     23  N   VAL A  10      -4.774   0.953  14.102  0.00  0.00    -0.298 N 
ATOM     24  H   VAL A  10      -4.134   0.805  14.908  0.00  0.00    +0.150 HD
ATOM     25  O   THR A   9      -5.982   2.453  12.908  0.00  0.00    -0.273 OA
BRANCH  23  26
ATOM     26  CA  VAL A  10      -5.157  -0.203  13.271  0.00  0.00    +0.137 C 
BRANCH  26  27
ATOM     27  CB  VAL A  10      -3.955  -0.739  12.463  0.00  0.00    +0.026 C 
ATOM     28  CG2 VAL A  10      -3.203   0.413  11.819  0.00  0.00    +0.002 C 
ATOM     29  CG1 VAL A  10      -4.443  -1.716  11.376  0.00  0.00    +0.002 C 
ENDBRANCH  26  27
BRANCH  26  30
ATOM     30  C   VAL A  10      -5.725  -1.301  14.165  0.00  0.00    +0.227 C 
ATOM     31  O   VAL A  10      -5.057  -1.786  15.077  0.00  0.00    -0.286 OA
ENDBRANCH  26  30
ENDBRANCH  23  26
ENDBRANCH  21  22
BRANCH  21  32
ATOM     32  CB  THR A   9      -5.842   3.927  15.569  0.00  0.00    +0.137 C 
ATOM     33  CG2 THR A   9      -6.771   2.874  16.174  0.00  0.00    +0.034 C 
BRANCH  32  34
ATOM     34  OG1 THR A   9      -5.271   4.746  16.600  0.00  0.00    -0.382 OA
ATOM     35  HG1 THR A   9      -4.702   5.444  16.188  0.00  0.00    +0.210 HD
ENDBRANCH  32  34
ENDBRANCH  21  32
ENDBRANCH  19  21
ENDBRANCH  16  17
BRANCH  16  36
ATOM     36  CB  ASP A   8      -2.669   5.107  11.487  0.00  0.00    +0.143 C 
BRANCH  36  37
ATOM     37  CG  ASP A   8      -2.211   6.121  10.449  0.00  0.00    +0.367 C 
ATOM     38  OD2 ASP A   8      -2.685   7.268  10.510  0.00  0.00    -0.246 OA
ATOM     39  OD1 ASP A   8      -1.362   5.766   9.597  0.00  0.00    -0.246 OA
ENDBRANCH  36  37
ENDBRANCH  16  36
ENDBRANCH  14  16
ENDBRANCH  11  12
BRANCH  11  40
ATOM     40  CB  ASP A   7       1.464   7.383  11.674  0.00  0.00    +0.143 C 
BRANCH  40  41
ATOM     41  CG  ASP A   7       2.898   7.780  11.407  0.00  0.00    +0.367 C 
ATOM     42  OD2 ASP A   7       3.683   7.999  12.358  0.00  0.00    -0.246 OA
ATOM     43  OD1 ASP A   7       3.235   7.888  10.213  0.00  0.00    -0.246 OA
ENDBRANCH  40  41
ENDBRANCH  11  40
ENDBRANCH   9  11
ENDBRANCH   5   7
ENDBRANCH   2   5
BRANCH   1  44
ATOM     44  CA  GLY A   5       5.724   4.228  17.103  0.00  0.00    +0.176 C 
BRANCH  44  46
ATOM     45  C   THR A   4       4.709   5.544  18.857  0.00  0.00    +0.243 C 
ATOM     46  N   GLY A   5       5.059   4.347  18.386  0.00  0.00    -0.295 N 
ATOM     47  H   GLY A   5       4.854   3.493  18.943  0.00  0.00    +0.150 HD
ATOM     48  O   THR A   4       4.935   6.580  18.247  0.00  0.00    -0.273 OA
BRANCH  45  49
ATOM     49  CA  THR A   4       3.981   5.582  20.194  0.00  0.00    +0.176 C 
BRANCH  49  51
ATOM     50  C   ASP A   3       2.439   3.703  19.907  0.00  0.00    +0.241 C 
ATOM     51  N   THR A   4       3.454   4.260  20.568  0.00  0.00    -0.295 N 
ATOM     52  H   THR A   4       3.883   3.749  21.366  0.00  0.00    +0.150 HD
ATOM     53  O   ASP A   3       1.910   4.218  18.931  0.00  0.00    -0.273 OA
BRANCH  50  54
ATOM     54  CA  ASP A   3       1.978   2.332  20.389  0.00  0.00    +0.160 C 
BRANCH  54  57
ATOM     55  C   LEU A   2       0.780   1.930  22.470  0.00  0.00    +0.241 C 
ATOM     56  O   LEU A   2       1.801   1.571  23.061  0.00  0.00    -0.273 OA
ATOM     57  N   ASP A   3       0.773   2.363  21.217  0.00  0.00    -0.297 N 
ATOM     58  H   ASP A   3      -0.111   2.734  20.813  0.00  0.00    +0.150 HD
BRANCH  55  59
ATOM     59  CA  LEU A   2      -0.575   1.903  23.145  0.00  0.00    +0.149 C 
BRANCH  59  61
ATOM     60  C   LEU A   1      -1.250  -0.280  22.235  0.00  0.00    +0.238 C 
ATOM     61  N   LEU A   2      -0.841   0.460  23.272  0.00  0.00    -0.297 N 
ATOM     62  H   LEU A   2      -0.707   0.002  24.196  0.00  0.00    +0.150 HD
ATOM     63  O   LEU A   1      -1.517   0.191  21.140  0.00  0.00    -0.274 OA
BRANCH  60  64
ATOM     64  CA  LEU A   1      -1.432  -1.779  22.485  0.00  0.00    +0.145 C 
BRANCH  64  65
ATOM     65  N   LEU A   1      -2.778  -2.209  22.089  0.00  0.00    -0.238 NA
ATOM     66  H   LEU A   1      -2.941  -2.462  21.093  0.00  0.00    +0.142 HD
ENDBRANCH  64  65
BRANCH  64  67
ATOM     67  CB  LEU A   1      -0.411  -2.569  21.652  0.00  0.00    +0.026 C 
BRANCH  67  68
ATOM     68  CG  LEU A   1       1.098  -2.387  21.843  0.00  0.00    +0.002 C 
ATOM     69  CD2 LEU A   1       1.538  -2.947  23.187  0.00  0.00    +0.000 C 
ATOM     70  CD1 LEU A   1       1.801  -3.152  20.719  0.00  0.00    +0.000 C 
ENDBRANCH  67  68
ENDBRANCH  64  67
ENDBRANCH  60  64
ENDBRANCH  59  61
BRANCH  59  71
ATOM     71  CB  LEU A   2      -0.533   2.565  24.518  0.00  0.00    +0.029 C 
BRANCH  71  72
ATOM     72  CG  LEU A   2      -1.824   2.369  25.308  0.00  0.00    +0.002 C 
ATOM     73  CD2 LEU A   2      -1.662   3.030  26.673  0.00  0.00    +0.000 C 
ATOM     74  CD1 LEU A   2      -3.022   2.947  24.558  0.00  0.00    +0.000 C 
ENDBRANCH  71  72
ENDBRANCH  59  71
ENDBRANCH  55  59
ENDBRANCH  54  57
BRANCH  54  75
ATOM     75  CB  ASP A   3       1.656   1.398  19.208  0.00  0.00    +0.143 C 
BRANCH  75  76
ATOM     76  CG  ASP A   3       2.859   1.078  18.330  0.00  0.00    +0.367 C 
ATOM     77  OD2 ASP A   3       3.977   1.586  18.546  0.00  0.00    -0.246 OA
ATOM     78  OD1 ASP A   3       2.665   0.287  17.394  0.00  0.00    -0.246 OA
ENDBRANCH  75  76
ENDBRANCH  54  75
ENDBRANCH  50  54
ENDBRANCH  49  51
BRANCH  49  79
ATOM     79  CB  THR A   4       4.911   6.140  21.269  0.00  0.00    +0.137 C 
ATOM     80  CG2 THR A   4       4.188   6.208  22.612  0.00  0.00    +0.034 C 
BRANCH  79  81
ATOM     81  OG1 THR A   4       6.067   5.298  21.376  0.00  0.00    -0.382 OA
ATOM     82  HG1 THR A   4       6.539   5.276  20.506  0.00  0.00    +0.210 HD
ENDBRANCH  79  81
ENDBRANCH  49  79
ENDBRANCH  45  49
ENDBRANCH  44  46
ENDBRANCH   1  44
TORSDOF 35
REMARK  Name = ../refined-set-2016/1d4l/1d4l_pocket.pdb
REMARK  210 active torsions:
REMARK  status: ('A' for Active; 'I' for Inactive)
REMARK    1  A    between atoms: _1  and  _3
REMARK    2  A    between atoms: _3  and  _4
REMARK    3  A    between atoms: _3  and  _6
REMARK    4  A    between atoms: _6  and  _7
REMARK    5  A    between atoms: _7  and  _8
REMARK    6  A    between atoms: _8  and  _9
REMARK    7  A    between atoms: _18  and  _20
REMARK    8  A    between atoms: _20  and  _21
REMARK    9  A    between atoms: _20  and  _23
REMARK   10  A    between atoms: _23  and  _24
REMARK   11  A    between atoms: _27  and  _29
REMARK   12  A    between atoms: _29  and  _30
REMARK   13  A    between atoms: _29  and  _32
REMARK   14  A    between atoms: _32  and  _33
REMARK   15  A    between atoms: _36  and  _38
REMARK   16  A    between atoms: _38  and  _39
REMARK   17  A    between atoms: _38  and  _41
REMARK   18  A    between atoms: _41  and  _42
REMARK   19  A    between atoms: _45  and  _47
REMARK   20  A    between atoms: _47  and  _48
REMARK   21  A    between atoms: _47  and  _50
REMARK   22  A    between atoms: _50  and  _51
REMARK   23  A    between atoms: _54  and  _56
REMARK   24  A    between atoms: _56  and  _57
REMARK   25  A    between atoms: _59  and  _61
REMARK   26  A    between atoms: _61  and  _62
REMARK   27  A    between atoms: _65  and  _67
REMARK   28  A    between atoms: _67  and  _68
REMARK   29  A    between atoms: _67  and  _70
REMARK   30  A    between atoms: _70  and  _71
REMARK   31  A    between atoms: _74  and  _76
REMARK   32  A    between atoms: _76  and  _77
REMARK   33  A    between atoms: _76  and  _79
REMARK   34  A    between atoms: _79  and  _80
REMARK   35  A    between atoms: _83  and  _85
REMARK   36  A    between atoms: _85  and  _86
REMARK   37  A    between atoms: _85  and  _88
REMARK   38  A    between atoms: _88  and  _89
REMARK   39  A    between atoms: _92  and  _94
REMARK   40  A    between atoms: _94  and  _95
REMARK   41  A    between atoms: _94  and  _97
REMARK   42  A    between atoms: _100  and  _102
REMARK   43  A    between atoms: _102  and  _103
REMARK   44  A    between atoms: _102  and  _105
REMARK   45  A    between atoms: _105  and  _106
REMARK   46  A    between atoms: _109  and  _111
REMARK   47  A    between atoms: _111  and  _112
REMARK   48  A    between atoms: _114  and  _116
REMARK   49  A    between atoms: _116  and  _117
REMARK   50  A    between atoms: _119  and  _121
REMARK   51  A    between atoms: _121  and  _122
REMARK   52  A    between atoms: _121  and  _124
REMARK   53  A    between atoms: _124  and  _125
REMARK   54  A    between atoms: _128  and  _130
REMARK   55  A    between atoms: _130  and  _131
REMARK   56  A    between atoms: _133  and  _135
REMARK   57  A    between atoms: _135  and  _136
REMARK   58  A    between atoms: _138  and  _140
REMARK   59  A    between atoms: _140  and  _141
REMARK   60  A    between atoms: _140  and  _143
REMARK   61  A    between atoms: _143  and  _144
REMARK   62  A    between atoms: _150  and  _152
REMARK   63  A    between atoms: _152  and  _153
REMARK   64  A    between atoms: _152  and  _155
REMARK   65  A    between atoms: _155  and  _156
REMARK   66  A    between atoms: _159  and  _161
REMARK   67  A    between atoms: _161  and  _162
REMARK   68  A    between atoms: _161  and  _164
REMARK   69  A    between atoms: _164  and  _165
REMARK   70  A    between atoms: _169  and  _170
REMARK   71  A    between atoms: _175  and  _177
REMARK   72  A    between atoms: _177  and  _178
REMARK   73  A    between atoms: _177  and  _180
REMARK   74  A    between atoms: _180  and  _181
REMARK   75  A    between atoms: _185  and  _186
REMARK   76  A    between atoms: _191  and  _193
REMARK   77  A    between atoms: _193  and  _194
REMARK   78  A    between atoms: _193  and  _196
REMARK   79  A    between atoms: _199  and  _201
REMARK   80  A    between atoms: _201  and  _202
REMARK   81  A    between atoms: _201  and  _204
REMARK   82  A    between atoms: _204  and  _205
REMARK   83  A    between atoms: _210  and  _212
REMARK   84  A    between atoms: _212  and  _213
REMARK   85  A    between atoms: _212  and  _215
REMARK   86  A    between atoms: _215  and  _216
REMARK   87  A    between atoms: _219  and  _221
REMARK   88  A    between atoms: _221  and  _222
REMARK   89  A    between atoms: _221  and  _224
REMARK   90  A    between atoms: _224  and  _225
REMARK   91  A    between atoms: _228  and  _230
REMARK   92  A    between atoms: _230  and  _231
REMARK   93  A    between atoms: _233  and  _235
REMARK   94  A    between atoms: _235  and  _236
REMARK   95  A    between atoms: _235  and  _238
REMARK   96  A    between atoms: _238  and  _239
REMARK   97  A    between atoms: _239  and  _240
REMARK   98  A    between atoms: _240  and  _241
REMARK   99  A    between atoms: _250  and  _252
REMARK  100  A    between atoms: _252  and  _253
REMARK  101  A    between atoms: _252  and  _255
REMARK  102  A    between atoms: _255  and  _256
REMARK  103  A    between atoms: _256  and  _257
REMARK  104  A    between atoms: _257  and  _258
REMARK  105  A    between atoms: _267  and  _269
REMARK  106  A    between atoms: _269  and  _270
REMARK  107  A    between atoms: _269  and  _272
REMARK  108  A    between atoms: _272  and  _273
REMARK  109  A    between atoms: _276  and  _278
REMARK  110  A    between atoms: _278  and  _279
REMARK  111  A    between atoms: _278  and  _281
REMARK  112  A    between atoms: _281  and  _282
REMARK  113  A    between atoms: _285  and  _287
REMARK  114  A    between atoms: _287  and  _288
REMARK  115  A    between atoms: _287  and  _290
REMARK  116  A    between atoms: _290  and  _291
REMARK  117  A    between atoms: _294  and  _296
REMARK  118  A    between atoms: _296  and  _297
REMARK  119  A    between atoms: _296  and  _299
REMARK  120  A    between atoms: _299  and  _300
REMARK  121  A    between atoms: _303  and  _305
REMARK  122  A    between atoms: _305  and  _306
REMARK  123  A    between atoms: _308  and  _310
REMARK  124  A    between atoms: _310  and  _311
REMARK  125  A    between atoms: _314  and  _316
REMARK  126  A    between atoms: _316  and  _317
REMARK  127  A    between atoms: _316  and  _319
REMARK  128  A    between atoms: _319  and  _320
REMARK  129  A    between atoms: _323  and  _325
REMARK  130  A    between atoms: _325  and  _326
REMARK  131  A    between atoms: _325  and  _328
REMARK  132  A    between atoms: _328  and  _329
REMARK  133  A    between atoms: _332  and  _334
REMARK  134  A    between atoms: _334  and  _335
REMARK  135  A    between atoms: _334  and  _337
REMARK  136  A    between atoms: _337  and  _338
REMARK  137  A    between atoms: _341  and  _343
REMARK  138  A    between atoms: _343  and  _344
REMARK  139  A    between atoms: _343  and  _346
REMARK  140  A    between atoms: _349  and  _351
REMARK  141  A    between atoms: _351  and  _352
REMARK  142  A    between atoms: _351  and  _354
REMARK  143  A    between atoms: _354  and  _355
REMARK  144  A    between atoms: _355  and  _356
REMARK  145  A    between atoms: _356  and  _357
REMARK  146  A    between atoms: _357  and  _358
REMARK  147  A    between atoms: _362  and  _364
REMARK  148  A    between atoms: _364  and  _365
REMARK  149  A    between atoms: _364  and  _367
REMARK  150  A    between atoms: _367  and  _368
REMARK  151  A    between atoms: _368  and  _369
REMARK  152  A    between atoms: _371  and  _373
REMARK  153  A    between atoms: _373  and  _374
REMARK  154  A    between atoms: _373  and  _376
REMARK  155  A    between atoms: _376  and  _377
REMARK  156  A    between atoms: _380  and  _382
REMARK  157  A    between atoms: _382  and  _383
REMARK  158  A    between atoms: _385  and  _387
REMARK  159  A    between atoms: _387  and  _388
REMARK  160  A    between atoms: _390  and  _392
REMARK  161  A    between atoms: _392  and  _393
REMARK  162  A    between atoms: _392  and  _395
REMARK  163  A    between atoms: _395  and  _396
REMARK  164  A    between atoms: _399  and  _401
REMARK  165  A    between atoms: _401  and  _402
REMARK  166  A    between atoms: _404  and  _406
REMARK  167  A    between atoms: _406  and  _407
REMARK  168  A    between atoms: _409  and  _411
REMARK  169  A    between atoms: _411  and  _412
REMARK  170  A    between atoms: _411  and  _414
REMARK  171  A    between atoms: _414  and  _415
REMARK  172  A    between atoms: _418  and  _420
REMARK  173  A    between atoms: _420  and  _421
REMARK  174  A    between atoms: _420  and  _423
REMARK  175  A    between atoms: _426  and  _428
REMARK  176  A    between atoms: _428  and  _429
REMARK  177  A    between atoms: _428  and  _431
REMARK  178  A    between atoms: _431  and  _432
REMARK  179  A    between atoms: _435  and  _437
REMARK  180  A    between atoms: _437  and  _438
REMARK  181  A    between atoms: _437  and  _440
REMARK  182  A    between atoms: _440  and  _441
REMARK  183  A    between atoms: _445  and  _446
REMARK  184  A    between atoms: _451  and  _453
REMARK  185  A    between atoms: _453  and  _454
REMARK  186  A    between atoms: _453  and  _456
REMARK  187  A    between atoms: _459  and  _461
REMARK  188  A    between atoms: _461  and  _462
REMARK  189  A    between atoms: _461  and  _464
REMARK  190  A    between atoms: _464  and  _465
REMARK  191  A    between atoms: _470  and  _472
REMARK  192  A    between atoms: _472  and  _473
REMARK  193  A    between atoms: _472  and  _475
REMARK  194  A    between atoms: _475  and  _476
REMARK  195  A    between atoms: _479  and  _481
REMARK  196  A    between atoms: _481  and  _482
REMARK  197  A    between atoms: _481  and  _484
REMARK  198  A    between atoms: _484  and  _485
REMARK  199  A    between atoms: _488  and  _490
REMARK  200  A    between atoms: _490  and  _491
REMARK  201  A    between atoms: _493  and  _495
REMARK  202  A    between atoms: _495  and  _496
REMARK  203  A    between atoms: _495  and  _498
REMARK  204  A    between atoms: _498  and  _499
REMARK  205  A    between atoms: _499  and  _500
REMARK  206  A    between atoms: _500  and  _501
REMARK  207  A    between atoms: _510  and  _512
REMARK  208  A    between atoms: _512  and  _513
REMARK  209  A    between atoms: _512  and  _515
REMARK  210  A    between atoms: _515  and  _516
REMARK                            x       y       z     vdW  Elec       q    Type
REMARK                         _______ _______ _______ _____ _____    ______ ____
ROOT
ATOM      1  C   ILE A   4       8.341  -4.342   8.024  0.00  0.00    +0.241 C 
ATOM      2  N   GLY A   5       7.344  -5.199   7.824  0.00  0.00    -0.295 N 
ATOM      3  H   GLY A   5       6.503  -5.170   8.435  0.00  0.00    +0.150 HD
ATOM      4  O   ILE A   4       9.317  -4.273   7.274  0.00  0.00    -0.273 OA
ENDROOT
BRANCH   2   5
ATOM      5  CA  GLY A   5       7.431  -6.176   6.751  0.00  0.00    +0.176 C 
BRANCH   5   6
ATOM      6  C   GLY A   5       6.892  -5.797   5.383  0.00  0.00    +0.243 C 
ATOM      7  N   GLY A   6       6.323  -4.602   5.265  0.00  0.00    -0.295 N 
ATOM      8  H   GLY A   6       6.275  -3.976   6.094  0.00  0.00    +0.150 HD
ATOM      9  O   GLY A   5       6.977  -6.594   4.448  0.00  0.00    -0.273 OA
BRANCH   7  10
ATOM     10  CA  GLY A   6       5.766  -4.152   3.998  0.00  0.00    +0.176 C 
BRANCH  10  11
ATOM     11  C   GLY A   6       4.426  -3.446   4.181  0.00  0.00    +0.243 C 
ATOM     12  O   GLY A   6       4.174  -2.843   5.221  0.00  0.00    -0.273 OA
ATOM     13  N   PHE A   7       3.565  -3.532   3.168  0.00  0.00    -0.297 N 
ATOM     14  H   PHE A   7       3.836  -4.076   2.324  0.00  0.00    +0.150 HD
BRANCH  13  15
ATOM     15  CA  PHE A   7       2.247  -2.886   3.202  0.00  0.00    +0.153 C 
BRANCH  15  16
ATOM     16  C   PHE A   7       1.094  -3.867   3.265  0.00  0.00    +0.241 C 
ATOM     17  N   ILE A   8       0.024  -3.462   3.940  0.00  0.00    -0.298 N 
ATOM     18  H   ILE A   8       0.052  -2.544   4.428  0.00  0.00    +0.150 HD
ATOM     19  O   PHE A   7       1.175  -4.967   2.731  0.00  0.00    -0.273 OA
BRANCH  17  20
ATOM     20  CA  ILE A   8      -1.196  -4.272   4.016  0.00  0.00    +0.137 C 
BRANCH  20  21
ATOM     21  C   ILE A   8      -2.374  -3.401   3.596  0.00  0.00    +0.227 C 
ATOM     22  O   ILE A   8      -2.280  -2.166   3.584  0.00  0.00    -0.286 OA
ENDBRANCH  20  21
BRANCH  20  23
ATOM     23  CB  ILE A   8      -1.464  -4.840   5.423  0.00  0.00    +0.026 C 
ATOM     24  CG2 ILE A   8      -0.296  -5.707   5.870  0.00  0.00    +0.002 C 
BRANCH  23  25
ATOM     25  CG1 ILE A   8      -1.671  -3.718   6.434  0.00  0.00    +0.002 C 
ATOM     26  CD1 ILE A   8      -2.256  -4.223   7.738  0.00  0.00    +0.000 C 
ENDBRANCH  23  25
ENDBRANCH  20  23
ENDBRANCH  17  20
ENDBRANCH  15  16
BRANCH  15  27
ATOM     27  CB  PHE A   7       2.053  -2.011   1.960  0.00  0.00    +0.055 C 
BRANCH  27  28
ATOM     28  CG  PHE A   7       2.756  -0.696   2.029  0.00  0.00    -0.020 A 
ATOM     29  CD2 PHE A   7       2.049   0.464   2.324  0.00  0.00    -0.004 A 
ATOM     30  CE2 PHE A   7       2.701   1.685   2.429  0.00  0.00    -0.000 A 
ATOM     31  CZ  PHE A   7       4.081   1.750   2.239  0.00  0.00    -0.000 A 
ATOM     32  CE1 PHE A   7       4.793   0.605   1.942  0.00  0.00    -0.000 A 
ATOM     33  CD1 PHE A   7       4.132  -0.612   1.836  0.00  0.00    -0.004 A 
ENDBRANCH  27  28
ENDBRANCH  15  27
ENDBRANCH  13  15
ENDBRANCH  10  11
ENDBRANCH   7  10
ENDBRANCH   5   6
ENDBRANCH   2   5
BRANCH   1  34
ATOM     34  CA  ILE A   4       8.211  -3.360   9.191  0.00  0.00    +0.149 C 
BRANCH  34  36
ATOM     35  C   GLY A   3       6.456  -1.842   8.430  0.00  0.00    +0.243 C 
ATOM     36  N   ILE A   4       6.880  -2.745   9.307  0.00  0.00    -0.297 N 
ATOM     37  H   ILE A   4       6.258  -3.023  10.092  0.00  0.00    +0.150 HD
ATOM     38  O   GLY A   3       7.075  -1.529   7.417  0.00  0.00    -0.273 OA
BRANCH  35  39
ATOM     39  CA  GLY A   3       5.095  -1.263   8.681  0.00  0.00    +0.176 C 
BRANCH  39  42
ATOM     40  C   GLY A   2       3.585  -0.021   7.307  0.00  0.00    +0.243 C 
ATOM     41  O   GLY A   2       3.234   0.662   8.264  0.00  0.00    -0.273 OA
ATOM     42  N   GLY A   3       4.496  -0.969   7.404  0.00  0.00    -0.295 N 
ATOM     43  H   GLY A   3       4.782  -1.504   6.559  0.00  0.00    +0.150 HD
BRANCH  40  44
ATOM     44  CA  GLY A   2       3.032   0.184   5.921  0.00  0.00    +0.176 C 
BRANCH  44  46
ATOM     45  C   ILE A   1       0.670   0.310   5.472  0.00  0.00    +0.238 C 
ATOM     46  N   GLY A   2       1.785   0.906   5.866  0.00  0.00    -0.296 N 
ATOM     47  H   GLY A   2       1.761   1.909   6.140  0.00  0.00    +0.150 HD
ATOM     48  O   ILE A   1       0.594  -0.886   5.187  0.00  0.00    -0.274 OA
BRANCH  45  49
ATOM     49  CA  ILE A   1      -0.555   1.194   5.425  0.00  0.00    +0.145 C 
BRANCH  49  50
ATOM     50  N   ILE A   1      -1.482   0.668   4.409  0.00  0.00    -0.238 NA
ATOM     51  H   ILE A   1      -1.767  -0.332   4.448  0.00  0.00    +0.142 HD
ENDBRANCH  49  50
BRANCH  49  52
ATOM     52  CB  ILE A   1      -1.173   1.238   6.823  0.00  0.00    +0.025 C 
ATOM     53  CG2 ILE A   1      -2.370   2.152   6.824  0.00  0.00    +0.002 C 
BRANCH  52  54
ATOM     54  CG1 ILE A   1      -1.584  -0.163   7.268  0.00  0.00    +0.002 C 
ATOM     55  CD1 ILE A   1      -2.041  -0.200   8.693  0.00  0.00    +0.000 C 
ENDBRANCH  52  54
ENDBRANCH  49  52
ENDBRANCH  45  49
ENDBRANCH  44  46
ENDBRANCH  40  44
ENDBRANCH  39  42
ENDBRANCH  35  39
ENDBRANCH  34  36
BRANCH  34  56
ATOM     56  CB  ILE A   4       8.655  -4.023  10.533  0.00  0.00    +0.027 C 
ATOM     57  CG2 ILE A   4       8.145  -5.449  10.634  0.00  0.00    +0.002 C 
BRANCH  56  58
ATOM     58  CG1 ILE A   4      10.180  -4.026  10.652  0.00  0.00    +0.002 C 
ATOM     59  CD1 ILE A   4      10.730  -2.966  11.583  0.00  0.00    +0.000 C 
ENDBRANCH  56  58
ENDBRANCH  34  56
ENDBRANCH   1  34
TORSDOF 24
REMARK  Name = ../refined-set-2016/1d4l/1d4l_pocket.pdb
REMARK  210 active torsions:
REMARK  status: ('A' for Active; 'I' for Inactive)
REMARK    1  A    between atoms: _1  and  _3
REMARK    2  A    between atoms: _3  and  _4
REMARK    3  A    between atoms: _3  and  _6
REMARK    4  A    between atoms: _6  and  _7
REMARK    5  A    between atoms: _7  and  _8
REMARK    6  A    between atoms: _8  and  _9
REMARK    7  A    between atoms: _18  and  _20
REMARK    8  A    between atoms: _20  and  _21
REMARK    9  A    between atoms: _20  and  _23
REMARK   10  A    between atoms: _23  and  _24
REMARK   11  A    between atoms: _27  and  _29
REMARK   12  A    between atoms: _29  and  _30
REMARK   13  A    between atoms: _29  and  _32
REMARK   14  A    between atoms: _32  and  _33
REMARK   15  A    between atoms: _36  and  _38
REMARK   16  A    between atoms: _38  and  _39
REMARK   17  A    between atoms: _38  and  _41
REMARK   18  A    between atoms: _41  and  _42
REMARK   19  A    between atoms: _45  and  _47
REMARK   20  A    between atoms: _47  and  _48
REMARK   21  A    between atoms: _47  and  _50
REMARK   22  A    between atoms: _50  and  _51
REMARK   23  A    between atoms: _54  and  _56
REMARK   24  A    between atoms: _56  and  _57
REMARK   25  A    between atoms: _59  and  _61
REMARK   26  A    between atoms: _61  and  _62
REMARK   27  A    between atoms: _65  and  _67
REMARK   28  A    between atoms: _67  and  _68
REMARK   29  A    between atoms: _67  and  _70
REMARK   30  A    between atoms: _70  and  _71
REMARK   31  A    between atoms: _74  and  _76
REMARK   32  A    between atoms: _76  and  _77
REMARK   33  A    between atoms: _76  and  _79
REMARK   34  A    between atoms: _79  and  _80
REMARK   35  A    between atoms: _83  and  _85
REMARK   36  A    between atoms: _85  and  _86
REMARK   37  A    between atoms: _85  and  _88
REMARK   38  A    between atoms: _88  and  _89
REMARK   39  A    between atoms: _92  and  _94
REMARK   40  A    between atoms: _94  and  _95
REMARK   41  A    between atoms: _94  and  _97
REMARK   42  A    between atoms: _100  and  _102
REMARK   43  A    between atoms: _102  and  _103
REMARK   44  A    between atoms: _102  and  _105
REMARK   45  A    between atoms: _105  and  _106
REMARK   46  A    between atoms: _109  and  _111
REMARK   47  A    between atoms: _111  and  _112
REMARK   48  A    between atoms: _114  and  _116
REMARK   49  A    between atoms: _116  and  _117
REMARK   50  A    between atoms: _119  and  _121
REMARK   51  A    between atoms: _121  and  _122
REMARK   52  A    between atoms: _121  and  _124
REMARK   53  A    between atoms: _124  and  _125
REMARK   54  A    between atoms: _128  and  _130
REMARK   55  A    between atoms: _130  and  _131
REMARK   56  A    between atoms: _133  and  _135
REMARK   57  A    between atoms: _135  and  _136
REMARK   58  A    between atoms: _138  and  _140
REMARK   59  A    between atoms: _140  and  _141
REMARK   60  A    between atoms: _140  and  _143
REMARK   61  A    between atoms: _143  and  _144
REMARK   62  A    between atoms: _150  and  _152
REMARK   63  A    between atoms: _152  and  _153
REMARK   64  A    between atoms: _152  and  _155
REMARK   65  A    between atoms: _155  and  _156
REMARK   66  A    between atoms: _159  and  _161
REMARK   67  A    between atoms: _161  and  _162
REMARK   68  A    between atoms: _161  and  _164
REMARK   69  A    between atoms: _164  and  _165
REMARK   70  A    between atoms: _169  and  _170
REMARK   71  A    between atoms: _175  and  _177
REMARK   72  A    between atoms: _177  and  _178
REMARK   73  A    between atoms: _177  and  _180
REMARK   74  A    between atoms: _180  and  _181
REMARK   75  A    between atoms: _185  and  _186
REMARK   76  A    between atoms: _191  and  _193
REMARK   77  A    between atoms: _193  and  _194
REMARK   78  A    between atoms: _193  and  _196
REMARK   79  A    between atoms: _199  and  _201
REMARK   80  A    between atoms: _201  and  _202
REMARK   81  A    between atoms: _201  and  _204
REMARK   82  A    between atoms: _204  and  _205
REMARK   83  A    between atoms: _210  and  _212
REMARK   84  A    between atoms: _212  and  _213
REMARK   85  A    between atoms: _212  and  _215
REMARK   86  A    between atoms: _215  and  _216
REMARK   87  A    between atoms: _219  and  _221
REMARK   88  A    between atoms: _221  and  _222
REMARK   89  A    between atoms: _221  and  _224
REMARK   90  A    between atoms: _224  and  _225
REMARK   91  A    between atoms: _228  and  _230
REMARK   92  A    between atoms: _230  and  _231
REMARK   93  A    between atoms: _233  and  _235
REMARK   94  A    between atoms: _235  and  _236
REMARK   95  A    between atoms: _235  and  _238
REMARK   96  A    between atoms: _238  and  _239
REMARK   97  A    between atoms: _239  and  _240
REMARK   98  A    between atoms: _240  and  _241
REMARK   99  A    between atoms: _250  and  _252
REMARK  100  A    between atoms: _252  and  _253
REMARK  101  A    between atoms: _252  and  _255
REMARK  102  A    between atoms: _255  and  _256
REMARK  103  A    between atoms: _256  and  _257
REMARK  104  A    between atoms: _257  and  _258
REMARK  105  A    between atoms: _267  and  _269
REMARK  106  A    between atoms: _269  and  _270
REMARK  107  A    between atoms: _269  and  _272
REMARK  108  A    between atoms: _272  and  _273
REMARK  109  A    between atoms: _276  and  _278
REMARK  110  A    between atoms: _278  and  _279
REMARK  111  A    between atoms: _278  and  _281
REMARK  112  A    between atoms: _281  and  _282
REMARK  113  A    between atoms: _285  and  _287
REMARK  114  A    between atoms: _287  and  _288
REMARK  115  A    between atoms: _287  and  _290
REMARK  116  A    between atoms: _290  and  _291
REMARK  117  A    between atoms: _294  and  _296
REMARK  118  A    between atoms: _296  and  _297
REMARK  119  A    between atoms: _296  and  _299
REMARK  120  A    between atoms: _299  and  _300
REMARK  121  A    between atoms: _303  and  _305
REMARK  122  A    between atoms: _305  and  _306
REMARK  123  A    between atoms: _308  and  _310
REMARK  124  A    between atoms: _310  and  _311
REMARK  125  A    between atoms: _314  and  _316
REMARK  126  A    between atoms: _316  and  _317
REMARK  127  A    between atoms: _316  and  _319
REMARK  128  A    between atoms: _319  and  _320
REMARK  129  A    between atoms: _323  and  _325
REMARK  130  A    between atoms: _325  and  _326
REMARK  131  A    between atoms: _325  and  _328
REMARK  132  A    between atoms: _328  and  _329
REMARK  133  A    between atoms: _332  and  _334
REMARK  134  A    between atoms: _334  and  _335
REMARK  135  A    between atoms: _334  and  _337
REMARK  136  A    between atoms: _337  and  _338
REMARK  137  A    between atoms: _341  and  _343
REMARK  138  A    between atoms: _343  and  _344
REMARK  139  A    between atoms: _343  and  _346
REMARK  140  A    between atoms: _349  and  _351
REMARK  141  A    between atoms: _351  and  _352
REMARK  142  A    between atoms: _351  and  _354
REMARK  143  A    between atoms: _354  and  _355
REMARK  144  A    between atoms: _355  and  _356
REMARK  145  A    between atoms: _356  and  _357
REMARK  146  A    between atoms: _357  and  _358
REMARK  147  A    between atoms: _362  and  _364
REMARK  148  A    between atoms: _364  and  _365
REMARK  149  A    between atoms: _364  and  _367
REMARK  150  A    between atoms: _367  and  _368
REMARK  151  A    between atoms: _368  and  _369
REMARK  152  A    between atoms: _371  and  _373
REMARK  153  A    between atoms: _373  and  _374
REMARK  154  A    between atoms: _373  and  _376
REMARK  155  A    between atoms: _376  and  _377
REMARK  156  A    between atoms: _380  and  _382
REMARK  157  A    between atoms: _382  and  _383
REMARK  158  A    between atoms: _385  and  _387
REMARK  159  A    between atoms: _387  and  _388
REMARK  160  A    between atoms: _390  and  _392
REMARK  161  A    between atoms: _392  and  _393
REMARK  162  A    between atoms: _392  and  _395
REMARK  163  A    between atoms: _395  and  _396
REMARK  164  A    between atoms: _399  and  _401
REMARK  165  A    between atoms: _401  and  _402
REMARK  166  A    between atoms: _404  and  _406
REMARK  167  A    between atoms: _406  and  _407
REMARK  168  A    between atoms: _409  and  _411
REMARK  169  A    between atoms: _411  and  _412
REMARK  170  A    between atoms: _411  and  _414
REMARK  171  A    between atoms: _414  and  _415
REMARK  172  A    between atoms: _418  and  _420
REMARK  173  A    between atoms: _420  and  _421
REMARK  174  A    between atoms: _420  and  _423
REMARK  175  A    between atoms: _426  and  _428
REMARK  176  A    between atoms: _428  and  _429
REMARK  177  A    between atoms: _428  and  _431
REMARK  178  A    between atoms: _431  and  _432
REMARK  179  A    between atoms: _435  and  _437
REMARK  180  A    between atoms: _437  and  _438
REMARK  181  A    between atoms: _437  and  _440
REMARK  182  A    between atoms: _440  and  _441
REMARK  183  A    between atoms: _445  and  _446
REMARK  184  A    between atoms: _451  and  _453
REMARK  185  A    between atoms: _453  and  _454
REMARK  186  A    between atoms: _453  and  _456
REMARK  187  A    between atoms: _459  and  _461
REMARK  188  A    between atoms: _461  and  _462
REMARK  189  A    between atoms: _461  and  _464
REMARK  190  A    between atoms: _464  and  _465
REMARK  191  A    between atoms: _470  and  _472
REMARK  192  A    between atoms: _472  and  _473
REMARK  193  A    between atoms: _472  and  _475
REMARK  194  A    between atoms: _475  and  _476
REMARK  195  A    between atoms: _479  and  _481
REMARK  196  A    between atoms: _481  and  _482
REMARK  197  A    between atoms: _481  and  _484
REMARK  198  A    between atoms: _484  and  _485
REMARK  199  A    between atoms: _488  and  _490
REMARK  200  A    between atoms: _490  and  _491
REMARK  201  A    between atoms: _493  and  _495
REMARK  202  A    between atoms: _495  and  _496
REMARK  203  A    between atoms: _495  and  _498
REMARK  204  A    between atoms: _498  and  _499
REMARK  205  A    between atoms: _499  and  _500
REMARK  206  A    between atoms: _500  and  _501
REMARK  207  A    between atoms: _510  and  _512
REMARK  208  A    between atoms: _512  and  _513
REMARK  209  A    between atoms: _512  and  _515
REMARK  210  A    between atoms: _515  and  _516
REMARK                            x       y       z     vdW  Elec       q    Type
REMARK                         _______ _______ _______ _____ _____    ______ ____
ROOT
ATOM      1  CA  LEU A   1      -8.052   1.454  10.175  0.00  0.00    +0.133 C 
ENDROOT
BRANCH   1   2
ATOM      2  N   LEU A   1      -8.290   2.328  11.349  0.00  0.00    -0.239 NA
ATOM      3  H   LEU A   1      -7.536   2.436  12.057  0.00  0.00    +0.142 HD
ENDBRANCH   1   2
BRANCH   1   4
ATOM      4  C   LEU A   1      -8.301   0.009  10.618  0.00  0.00    +0.224 C 
ATOM      5  O   LEU A   1      -7.784  -0.421  11.650  0.00  0.00    -0.287 OA
ENDBRANCH   1   4
BRANCH   1   6
ATOM      6  CB  LEU A   1      -6.607   1.603   9.671  0.00  0.00    +0.025 C 
BRANCH   6   7
ATOM      7  CG  LEU A   1      -6.101   3.029   9.394  0.00  0.00    +0.002 C 
ATOM      8  CD2 LEU A   1      -4.652   2.997   9.022  0.00  0.00    +0.000 C 
ATOM      9  CD1 LEU A   1      -6.876   3.683   8.290  0.00  0.00    +0.000 C 
ENDBRANCH   6   7
ENDBRANCH   1   6
TORSDOF 4
REMARK  Name = ../refined-set-2016/1d4l/1d4l_pocket.pdb
REMARK  210 active torsions:
REMARK  status: ('A' for Active; 'I' for Inactive)
REMARK    1  A    between atoms: _1  and  _3
REMARK    2  A    between atoms: _3  and  _4
REMARK    3  A    between atoms: _3  and  _6
REMARK    4  A    between atoms: _6  and  _7
REMARK    5  A    between atoms: _7  and  _8
REMARK    6  A    between atoms: _8  and  _9
REMARK    7  A    between atoms: _18  and  _20
REMARK    8  A    between atoms: _20  and  _21
REMARK    9  A    between atoms: _20  and  _23
REMARK   10  A    between atoms: _23  and  _24
REMARK   11  A    between atoms: _27  and  _29
REMARK   12  A    between atoms: _29  and  _30
REMARK   13  A    between atoms: _29  and  _32
REMARK   14  A    between atoms: _32  and  _33
REMARK   15  A    between atoms: _36  and  _38
REMARK   16  A    between atoms: _38  and  _39
REMARK   17  A    between atoms: _38  and  _41
REMARK   18  A    between atoms: _41  and  _42
REMARK   19  A    between atoms: _45  and  _47
REMARK   20  A    between atoms: _47  and  _48
REMARK   21  A    between atoms: _47  and  _50
REMARK   22  A    between atoms: _50  and  _51
REMARK   23  A    between atoms: _54  and  _56
REMARK   24  A    between atoms: _56  and  _57
REMARK   25  A    between atoms: _59  and  _61
REMARK   26  A    between atoms: _61  and  _62
REMARK   27  A    between atoms: _65  and  _67
REMARK   28  A    between atoms: _67  and  _68
REMARK   29  A    between atoms: _67  and  _70
REMARK   30  A    between atoms: _70  and  _71
REMARK   31  A    between atoms: _74  and  _76
REMARK   32  A    between atoms: _76  and  _77
REMARK   33  A    between atoms: _76  and  _79
REMARK   34  A    between atoms: _79  and  _80
REMARK   35  A    between atoms: _83  and  _85
REMARK   36  A    between atoms: _85  and  _86
REMARK   37  A    between atoms: _85  and  _88
REMARK   38  A    between atoms: _88  and  _89
REMARK   39  A    between atoms: _92  and  _94
REMARK   40  A    between atoms: _94  and  _95
REMARK   41  A    between atoms: _94  and  _97
REMARK   42  A    between atoms: _100  and  _102
REMARK   43  A    between atoms: _102  and  _103
REMARK   44  A    between atoms: _102  and  _105
REMARK   45  A    between atoms: _105  and  _106
REMARK   46  A    between atoms: _109  and  _111
REMARK   47  A    between atoms: _111  and  _112
REMARK   48  A    between atoms: _114  and  _116
REMARK   49  A    between atoms: _116  and  _117
REMARK   50  A    between atoms: _119  and  _121
REMARK   51  A    between atoms: _121  and  _122
REMARK   52  A    between atoms: _121  and  _124
REMARK   53  A    between atoms: _124  and  _125
REMARK   54  A    between atoms: _128  and  _130
REMARK   55  A    between atoms: _130  and  _131
REMARK   56  A    between atoms: _133  and  _135
REMARK   57  A    between atoms: _135  and  _136
REMARK   58  A    between atoms: _138  and  _140
REMARK   59  A    between atoms: _140  and  _141
REMARK   60  A    between atoms: _140  and  _143
REMARK   61  A    between atoms: _143  and  _144
REMARK   62  A    between atoms: _150  and  _152
REMARK   63  A    between atoms: _152  and  _153
REMARK   64  A    between atoms: _152  and  _155
REMARK   65  A    between atoms: _155  and  _156
REMARK   66  A    between atoms: _159  and  _161
REMARK   67  A    between atoms: _161  and  _162
REMARK   68  A    between atoms: _161  and  _164
REMARK   69  A    between atoms: _164  and  _165
REMARK   70  A    between atoms: _169  and  _170
REMARK   71  A    between atoms: _175  and  _177
REMARK   72  A    between atoms: _177  and  _178
REMARK   73  A    between atoms: _177  and  _180
REMARK   74  A    between atoms: _180  and  _181
REMARK   75  A    between atoms: _185  and  _186
REMARK   76  A    between atoms: _191  and  _193
REMARK   77  A    between atoms: _193  and  _194
REMARK   78  A    between atoms: _193  and  _196
REMARK   79  A    between atoms: _199  and  _201
REMARK   80  A    between atoms: _201  and  _202
REMARK   81  A    between atoms: _201  and  _204
REMARK   82  A    between atoms: _204  and  _205
REMARK   83  A    between atoms: _210  and  _212
REMARK   84  A    between atoms: _212  and  _213
REMARK   85  A    between atoms: _212  and  _215
REMARK   86  A    between atoms: _215  and  _216
REMARK   87  A    between atoms: _219  and  _221
REMARK   88  A    between atoms: _221  and  _222
REMARK   89  A    between atoms: _221  and  _224
REMARK   90  A    between atoms: _224  and  _225
REMARK   91  A    between atoms: _228  and  _230
REMARK   92  A    between atoms: _230  and  _231
REMARK   93  A    between atoms: _233  and  _235
REMARK   94  A    between atoms: _235  and  _236
REMARK   95  A    between atoms: _235  and  _238
REMARK   96  A    between atoms: _238  and  _239
REMARK   97  A    between atoms: _239  and  _240
REMARK   98  A    between atoms: _240  and  _241
REMARK   99  A    between atoms: _250  and  _252
REMARK  100  A    between atoms: _252  and  _253
REMARK  101  A    between atoms: _252  and  _255
REMARK  102  A    between atoms: _255  and  _256
REMARK  103  A    between atoms: _256  and  _257
REMARK  104  A    between atoms: _257  and  _258
REMARK  105  A    between atoms: _267  and  _269
REMARK  106  A    between atoms: _269  and  _270
REMARK  107  A    between atoms: _269  and  _272
REMARK  108  A    between atoms: _272  and  _273
REMARK  109  A    between atoms: _276  and  _278
REMARK  110  A    between atoms: _278  and  _279
REMARK  111  A    between atoms: _278  and  _281
REMARK  112  A    between atoms: _281  and  _282
REMARK  113  A    between atoms: _285  and  _287
REMARK  114  A    between atoms: _287  and  _288
REMARK  115  A    between atoms: _287  and  _290
REMARK  116  A    between atoms: _290  and  _291
REMARK  117  A    between atoms: _294  and  _296
REMARK  118  A    between atoms: _296  and  _297
REMARK  119  A    between atoms: _296  and  _299
REMARK  120  A    between atoms: _299  and  _300
REMARK  121  A    between atoms: _303  and  _305
REMARK  122  A    between atoms: _305  and  _306
REMARK  123  A    between atoms: _308  and  _310
REMARK  124  A    between atoms: _310  and  _311
REMARK  125  A    between atoms: _314  and  _316
REMARK  126  A    between atoms: _316  and  _317
REMARK  127  A    between atoms: _316  and  _319
REMARK  128  A    between atoms: _319  and  _320
REMARK  129  A    between atoms: _323  and  _325
REMARK  130  A    between atoms: _325  and  _326
REMARK  131  A    between atoms: _325  and  _328
REMARK  132  A    between atoms: _328  and  _329
REMARK  133  A    between atoms: _332  and  _334
REMARK  134  A    between atoms: _334  and  _335
REMARK  135  A    between atoms: _334  and  _337
REMARK  136  A    between atoms: _337  and  _338
REMARK  137  A    between atoms: _341  and  _343
REMARK  138  A    between atoms: _343  and  _344
REMARK  139  A    between atoms: _343  and  _346
REMARK  140  A    between atoms: _349  and  _351
REMARK  141  A    between atoms: _351  and  _352
REMARK  142  A    between atoms: _351  and  _354
REMARK  143  A    between atoms: _354  and  _355
REMARK  144  A    between atoms: _355  and  _356
REMARK  145  A    between atoms: _356  and  _357
REMARK  146  A    between atoms: _357  and  _358
REMARK  147  A    between atoms: _362  and  _364
REMARK  148  A    between atoms: _364  and  _365
REMARK  149  A    between atoms: _364  and  _367
REMARK  150  A    between atoms: _367  and  _368
REMARK  151  A    between atoms: _368  and  _369
REMARK  152  A    between atoms: _371  and  _373
REMARK  153  A    between atoms: _373  and  _374
REMARK  154  A    between atoms: _373  and  _376
REMARK  155  A    between atoms: _376  and  _377
REMARK  156  A    between atoms: _380  and  _382
REMARK  157  A    between atoms: _382  and  _383
REMARK  158  A    between atoms: _385  and  _387
REMARK  159  A    between atoms: _387  and  _388
REMARK  160  A    between atoms: _390  and  _392
REMARK  161  A    between atoms: _392  and  _393
REMARK  162  A    between atoms: _392  and  _395
REMARK  163  A    between atoms: _395  and  _396
REMARK  164  A    between atoms: _399  and  _401
REMARK  165  A    between atoms: _401  and  _402
REMARK  166  A    between atoms: _404  and  _406
REMARK  167  A    between atoms: _406  and  _407
REMARK  168  A    between atoms: _409  and  _411
REMARK  169  A    between atoms: _411  and  _412
REMARK  170  A    between atoms: _411  and  _414
REMARK  171  A    between atoms: _414  and  _415
REMARK  172  A    between atoms: _418  and  _420
REMARK  173  A    between atoms: _420  and  _421
REMARK  174  A    between atoms: _420  and  _423
REMARK  175  A    between atoms: _426  and  _428
REMARK  176  A    between atoms: _428  and  _429
REMARK  177  A    between atoms: _428  and  _431
REMARK  178  A    between atoms: _431  and  _432
REMARK  179  A    between atoms: _435  and  _437
REMARK  180  A    between atoms: _437  and  _438
REMARK  181  A    between atoms: _437  and  _440
REMARK  182  A    between atoms: _440  and  _441
REMARK  183  A    between atoms: _445  and  _446
REMARK  184  A    between atoms: _451  and  _453
REMARK  185  A    between atoms: _453  and  _454
REMARK  186  A    between atoms: _453  and  _456
REMARK  187  A    between atoms: _459  and  _461
REMARK  188  A    between atoms: _461  and  _462
REMARK  189  A    between atoms: _461  and  _464
REMARK  190  A    between atoms: _464  and  _465
REMARK  191  A    between atoms: _470  and  _472
REMARK  192  A    between atoms: _472  and  _473
REMARK  193  A    between atoms: _472  and  _475
REMARK  194  A    between atoms: _475  and  _476
REMARK  195  A    between atoms: _479  and  _481
REMARK  196  A    between atoms: _481  and  _482
REMARK  197  A    between atoms: _481  and  _484
REMARK  198  A    between atoms: _484  and  _485
REMARK  199  A    between atoms: _488  and  _490
REMARK  200  A    between atoms: _490  and  _491
REMARK  201  A    between atoms: _493  and  _495
REMARK  202  A    between atoms: _495  and  _496
REMARK  203  A    between atoms: _495  and  _498
REMARK  204  A    between atoms: _498  and  _499
REMARK  205  A    between atoms: _499  and  _500
REMARK  206  A    between atoms: _500  and  _501
REMARK  207  A    between atoms: _510  and  _512
REMARK  208  A    between atoms: _512  and  _513
REMARK  209  A    between atoms: _512  and  _515
REMARK  210  A    between atoms: _515  and  _516
REMARK                            x       y       z     vdW  Elec       q    Type
REMARK                         _______ _______ _______ _____ _____    ______ ____
ROOT
ATOM      1  C   ASN A   5      -3.898  -2.997  18.409  0.00  0.00    +0.241 C 
ATOM      2  O   ASN A   5      -3.238  -3.147  19.437  0.00  0.00    -0.273 OA
ATOM      3  N   ILE A   6      -3.807  -1.923  17.637  0.00  0.00    -0.297 N 
ATOM      4  H   ILE A   6      -4.436  -1.838  16.813  0.00  0.00    +0.150 HD
ENDROOT
BRANCH   3   5
ATOM      5  CA  ILE A   6      -2.840  -0.847  17.913  0.00  0.00    +0.149 C 
BRANCH   5   6
ATOM      6  C   ILE A   6      -3.483   0.536  18.060  0.00  0.00    +0.241 C 
ATOM      7  N   ILE A   7      -3.225   1.231  19.172  0.00  0.00    -0.297 N 
ATOM      8  H   ILE A   7      -2.670   0.799  19.938  0.00  0.00    +0.150 HD
ATOM      9  O   ILE A   6      -4.248   0.946  17.200  0.00  0.00    -0.273 OA
BRANCH   7  10
ATOM     10  CA  ILE A   7      -3.732   2.627  19.315  0.00  0.00    +0.149 C 
BRANCH  10  11
ATOM     11  C   ILE A   7      -2.510   3.506  18.957  0.00  0.00    +0.241 C 
ATOM     12  O   ILE A   7      -1.478   3.463  19.646  0.00  0.00    -0.273 OA
ATOM     13  N   GLY A   8      -2.613   4.249  17.855  0.00  0.00    -0.295 N 
ATOM     14  H   GLY A   8      -3.498   4.239  17.308  0.00  0.00    +0.150 HD
BRANCH  13  15
ATOM     15  CA  GLY A   8      -1.504   5.071  17.411  0.00  0.00    +0.176 C 
BRANCH  15  16
ATOM     16  C   GLY A   8      -1.580   6.517  17.852  0.00  0.00    +0.243 C 
ATOM     17  O   GLY A   8      -2.540   6.917  18.505  0.00  0.00    -0.273 OA
ATOM     18  N   ARG A   9      -0.611   7.314  17.410  0.00  0.00    -0.298 N 
ATOM     19  H   ARG A   9       0.115   6.921  16.778  0.00  0.00    +0.150 HD
BRANCH  18  20
ATOM     20  CA  ARG A   9      -0.533   8.745  17.790  0.00  0.00    +0.137 C 
BRANCH  20  21
ATOM     21  C   ARG A   9      -1.779   9.591  17.492  0.00  0.00    +0.227 C 
ATOM     22  O   ARG A   9      -2.075  10.540  18.212  0.00  0.00    -0.286 OA
ENDBRANCH  20  21
BRANCH  20  23
ATOM     23  CB  ARG A   9       0.731   9.386  17.194  0.00  0.00    +0.031 C 
BRANCH  23  24
ATOM     24  CG  ARG A   9       2.023   8.816  17.760  0.00  0.00    +0.045 C 
BRANCH  24  25
ATOM     25  CD  ARG A   9       3.270   9.578  17.270  0.00  0.00    +0.174 C 
BRANCH  25  26
ATOM     26  NE  ARG A   9       3.399   9.547  15.795  0.00  0.00    -0.265 N 
ATOM     27  HE  ARG A   9       3.795   8.686  15.367  0.00  0.00    +0.259 HD
ATOM     28  CZ  ARG A   9       3.047  10.536  14.971  0.00  0.00    +0.342 C 
ATOM     29  NH2 ARG A   9       2.549  11.676  15.450  0.00  0.00    -0.292 N 
ATOM     30 HH21 ARG A   9       2.431  11.802  16.476  0.00  0.00    +0.255 HD
ATOM     31 HH22 ARG A   9       2.278  12.440  14.798  0.00  0.00    +0.255 HD
ATOM     32  NH1 ARG A   9       3.128  10.357  13.657  0.00  0.00    -0.292 N 
ATOM     33 HH11 ARG A   9       3.464   9.450  13.276  0.00  0.00    +0.255 HD
ATOM     34 HH12 ARG A   9       2.855  11.124  13.010  0.00  0.00    +0.255 HD
ENDBRANCH  25  26
ENDBRANCH  24  25
ENDBRANCH  23  24
ENDBRANCH  20  23
ENDBRANCH  18  20
ENDBRANCH  15  16
ENDBRANCH  13  15
ENDBRANCH  10  11
BRANCH  10  35
ATOM     35  CB  ILE A   7      -4.206   2.976  20.739  0.00  0.00    +0.027 C 
ATOM     36  CG2 ILE A   7      -4.666   4.455  20.770  0.00  0.00    +0.002 C 
BRANCH  35  37
ATOM     37  CG1 ILE A   7      -5.335   2.034  21.183  0.00  0.00    +0.002 C 
ATOM     38  CD1 ILE A   7      -6.582   2.144  20.337  0.00  0.00    +0.000 C 
ENDBRANCH  35  37
ENDBRANCH  10  35
ENDBRANCH   7  10
ENDBRANCH   5   6
BRANCH   5  39
ATOM     39  CB  ILE A   6      -1.783  -0.776  16.779  0.00  0.00    +0.027 C 
ATOM     40  CG2 ILE A   6      -0.832   0.393  16.994  0.00  0.00    +0.002 C 
BRANCH  39  41
ATOM     41  CG1 ILE A   6      -0.993  -2.085  16.706  0.00  0.00    +0.002 C 
ATOM     42  CD1 ILE A   6      -0.094  -2.175  15.503  0.00  0.00    +0.000 C 
ENDBRANCH  39  41
ENDBRANCH   5  39
ENDBRANCH   3   5
BRANCH   1  43
ATOM     43  CA  ASN A   5      -4.882  -4.073  17.973  0.00  0.00    +0.158 C 
BRANCH  43  45
ATOM     44  C   VAL A   4      -3.135  -5.630  17.195  0.00  0.00    +0.241 C 
ATOM     45  N   ASN A   5      -4.127  -5.347  18.044  0.00  0.00    -0.297 N 
ATOM     46  H   ASN A   5      -4.377  -6.041  18.777  0.00  0.00    +0.150 HD
ATOM     47  O   VAL A   4      -2.818  -4.881  16.268  0.00  0.00    -0.273 OA
BRANCH  44  48
ATOM     48  CA  VAL A   4      -2.395  -6.967  17.385  0.00  0.00    +0.149 C 
BRANCH  48  51
ATOM     49  C   PRO A   3      -1.668  -8.725  15.810  0.00  0.00    +0.241 C 
ATOM     50  O   PRO A   3      -1.913  -9.631  16.608  0.00  0.00    -0.273 OA
ATOM     51  N   VAL A   4      -1.891  -7.437  16.078  0.00  0.00    -0.297 N 
ATOM     52  H   VAL A   4      -1.702  -6.734  15.335  0.00  0.00    +0.150 HD
BRANCH  49  56
ATOM     53  C   THR A   2      -2.698  -7.742  13.041  0.00  0.00    +0.246 C 
ATOM     54  O   THR A   2      -3.664  -8.344  13.513  0.00  0.00    -0.273 OA
ATOM     55  N   PRO A   3      -1.435  -8.039  13.390  0.00  0.00    -0.272 N 
ATOM     56  CA  PRO A   3      -1.144  -9.052  14.413  0.00  0.00    +0.152 C 
ATOM     57  CB  PRO A   3       0.381  -9.159  14.385  0.00  0.00    +0.031 C 
ATOM     58  CG  PRO A   3       0.842  -7.950  13.615  0.00  0.00    +0.024 C 
ATOM     59  CD  PRO A   3      -0.225  -7.697  12.619  0.00  0.00    +0.094 C 
BRANCH  53  60
ATOM     60  CA  THR A   2      -2.892  -6.674  11.980  0.00  0.00    +0.176 C 
BRANCH  60  62
ATOM     61  C   PRO A   1      -3.813  -7.630   9.939  0.00  0.00    +0.239 C 
ATOM     62  N   THR A   2      -4.011  -7.062  11.120  0.00  0.00    -0.295 N 
ATOM     63  H   THR A   2      -4.984  -6.888  11.443  0.00  0.00    +0.150 HD
ATOM     64  O   PRO A   1      -2.696  -7.887   9.506  0.00  0.00    -0.274 OA
BRANCH  61  66
ATOM     65  N   PRO A   1      -5.885  -6.899   8.625  0.00  0.00    -0.210 NA
ATOM     66  CA  PRO A   1      -5.071  -7.999   9.154  0.00  0.00    +0.149 C 
ATOM     67  CB  PRO A   1      -4.756  -8.823   7.902  0.00  0.00    +0.028 C 
ATOM     68  CG  PRO A   1      -4.718  -7.833   6.832  0.00  0.00    +0.021 C 
ATOM     69  CD  PRO A   1      -5.887  -6.924   7.148  0.00  0.00    +0.089 C 
ENDBRANCH  61  66
ENDBRANCH  60  62
BRANCH  60  70
ATOM     70  CB  THR A   2      -3.155  -5.319  12.678  0.00  0.00    +0.137 C 
ATOM     71  CG2 THR A   2      -4.462  -5.361  13.458  0.00  0.00    +0.034 C 
BRANCH  70  72
ATOM     72  OG1 THR A   2      -2.067  -5.022  13.572  0.00  0.00    -0.382 OA
ATOM     73  HG1 THR A   2      -1.997  -5.737  14.253  0.00  0.00    +0.210 HD
ENDBRANCH  70  72
ENDBRANCH  60  70
ENDBRANCH  53  60
ENDBRANCH  49  56
ENDBRANCH  48  51
BRANCH  48  74
ATOM     74  CB  VAL A   4      -1.203  -6.753  18.382  0.00  0.00    +0.027 C 
ATOM     75  CG2 VAL A   4      -1.692  -6.242  19.739  0.00  0.00    +0.002 C 
ATOM     76  CG1 VAL A   4      -0.194  -5.788  17.788  0.00  0.00    +0.002 C 
ENDBRANCH  48  74
ENDBRANCH  44  48
ENDBRANCH  43  45
BRANCH  43  77
ATOM     77  CB  ASN A   5      -6.101  -4.103  18.907  0.00  0.00    +0.114 C 
BRANCH  77  78
ATOM     78  CG  ASN A   5      -7.156  -5.084  18.442  0.00  0.00    +0.222 C 
ATOM     79  ND2 ASN A   5      -7.784  -5.789  19.389  0.00  0.00    -0.329 N 
ATOM     80 HD21 ASN A   5      -7.554  -5.634  20.391  0.00  0.00    +0.145 HD
ATOM     81 HD22 ASN A   5      -8.502  -6.493  19.123  0.00  0.00    +0.145 HD
ATOM     82  OD1 ASN A   5      -7.387  -5.225  17.238  0.00  0.00    -0.275 OA
ENDBRANCH  77  78
ENDBRANCH  43  77
ENDBRANCH   1  43
TORSDOF 29
REMARK  Name = ../refined-set-2016/1d4l/1d4l_pocket.pdb
REMARK  210 active torsions:
REMARK  status: ('A' for Active; 'I' for Inactive)
REMARK    1  A    between atoms: _1  and  _3
REMARK    2  A    between atoms: _3  and  _4
REMARK    3  A    between atoms: _3  and  _6
REMARK    4  A    between atoms: _6  and  _7
REMARK    5  A    between atoms: _7  and  _8
REMARK    6  A    between atoms: _8  and  _9
REMARK    7  A    between atoms: _18  and  _20
REMARK    8  A    between atoms: _20  and  _21
REMARK    9  A    between atoms: _20  and  _23
REMARK   10  A    between atoms: _23  and  _24
REMARK   11  A    between atoms: _27  and  _29
REMARK   12  A    between atoms: _29  and  _30
REMARK   13  A    between atoms: _29  and  _32
REMARK   14  A    between atoms: _32  and  _33
REMARK   15  A    between atoms: _36  and  _38
REMARK   16  A    between atoms: _38  and  _39
REMARK   17  A    between atoms: _38  and  _41
REMARK   18  A    between atoms: _41  and  _42
REMARK   19  A    between atoms: _45  and  _47
REMARK   20  A    between atoms: _47  and  _48
REMARK   21  A    between atoms: _47  and  _50
REMARK   22  A    between atoms: _50  and  _51
REMARK   23  A    between atoms: _54  and  _56
REMARK   24  A    between atoms: _56  and  _57
REMARK   25  A    between atoms: _59  and  _61
REMARK   26  A    between atoms: _61  and  _62
REMARK   27  A    between atoms: _65  and  _67
REMARK   28  A    between atoms: _67  and  _68
REMARK   29  A    between atoms: _67  and  _70
REMARK   30  A    between atoms: _70  and  _71
REMARK   31  A    between atoms: _74  and  _76
REMARK   32  A    between atoms: _76  and  _77
REMARK   33  A    between atoms: _76  and  _79
REMARK   34  A    between atoms: _79  and  _80
REMARK   35  A    between atoms: _83  and  _85
REMARK   36  A    between atoms: _85  and  _86
REMARK   37  A    between atoms: _85  and  _88
REMARK   38  A    between atoms: _88  and  _89
REMARK   39  A    between atoms: _92  and  _94
REMARK   40  A    between atoms: _94  and  _95
REMARK   41  A    between atoms: _94  and  _97
REMARK   42  A    between atoms: _100  and  _102
REMARK   43  A    between atoms: _102  and  _103
REMARK   44  A    between atoms: _102  and  _105
REMARK   45  A    between atoms: _105  and  _106
REMARK   46  A    between atoms: _109  and  _111
REMARK   47  A    between atoms: _111  and  _112
REMARK   48  A    between atoms: _114  and  _116
REMARK   49  A    between atoms: _116  and  _117
REMARK   50  A    between atoms: _119  and  _121
REMARK   51  A    between atoms: _121  and  _122
REMARK   52  A    between atoms: _121  and  _124
REMARK   53  A    between atoms: _124  and  _125
REMARK   54  A    between atoms: _128  and  _130
REMARK   55  A    between atoms: _130  and  _131
REMARK   56  A    between atoms: _133  and  _135
REMARK   57  A    between atoms: _135  and  _136
REMARK   58  A    between atoms: _138  and  _140
REMARK   59  A    between atoms: _140  and  _141
REMARK   60  A    between atoms: _140  and  _143
REMARK   61  A    between atoms: _143  and  _144
REMARK   62  A    between atoms: _150  and  _152
REMARK   63  A    between atoms: _152  and  _153
REMARK   64  A    between atoms: _152  and  _155
REMARK   65  A    between atoms: _155  and  _156
REMARK   66  A    between atoms: _159  and  _161
REMARK   67  A    between atoms: _161  and  _162
REMARK   68  A    between atoms: _161  and  _164
REMARK   69  A    between atoms: _164  and  _165
REMARK   70  A    between atoms: _169  and  _170
REMARK   71  A    between atoms: _175  and  _177
REMARK   72  A    between atoms: _177  and  _178
REMARK   73  A    between atoms: _177  and  _180
REMARK   74  A    between atoms: _180  and  _181
REMARK   75  A    between atoms: _185  and  _186
REMARK   76  A    between atoms: _191  and  _193
REMARK   77  A    between atoms: _193  and  _194
REMARK   78  A    between atoms: _193  and  _196
REMARK   79  A    between atoms: _199  and  _201
REMARK   80  A    between atoms: _201  and  _202
REMARK   81  A    between atoms: _201  and  _204
REMARK   82  A    between atoms: _204  and  _205
REMARK   83  A    between atoms: _210  and  _212
REMARK   84  A    between atoms: _212  and  _213
REMARK   85  A    between atoms: _212  and  _215
REMARK   86  A    between atoms: _215  and  _216
REMARK   87  A    between atoms: _219  and  _221
REMARK   88  A    between atoms: _221  and  _222
REMARK   89  A    between atoms: _221  and  _224
REMARK   90  A    between atoms: _224  and  _225
REMARK   91  A    between atoms: _228  and  _230
REMARK   92  A    between atoms: _230  and  _231
REMARK   93  A    between atoms: _233  and  _235
REMARK   94  A    between atoms: _235  and  _236
REMARK   95  A    between atoms: _235  and  _238
REMARK   96  A    between atoms: _238  and  _239
REMARK   97  A    between atoms: _239  and  _240
REMARK   98  A    between atoms: _240  and  _241
REMARK   99  A    between atoms: _250  and  _252
REMARK  100  A    between atoms: _252  and  _253
REMARK  101  A    between atoms: _252  and  _255
REMARK  102  A    between atoms: _255  and  _256
REMARK  103  A    between atoms: _256  and  _257
REMARK  104  A    between atoms: _257  and  _258
REMARK  105  A    between atoms: _267  and  _269
REMARK  106  A    between atoms: _269  and  _270
REMARK  107  A    between atoms: _269  and  _272
REMARK  108  A    between atoms: _272  and  _273
REMARK  109  A    between atoms: _276  and  _278
REMARK  110  A    between atoms: _278  and  _279
REMARK  111  A    between atoms: _278  and  _281
REMARK  112  A    between atoms: _281  and  _282
REMARK  113  A    between atoms: _285  and  _287
REMARK  114  A    between atoms: _287  and  _288
REMARK  115  A    between atoms: _287  and  _290
REMARK  116  A    between atoms: _290  and  _291
REMARK  117  A    between atoms: _294  and  _296
REMARK  118  A    between atoms: _296  and  _297
REMARK  119  A    between atoms: _296  and  _299
REMARK  120  A    between atoms: _299  and  _300
REMARK  121  A    between atoms: _303  and  _305
REMARK  122  A    between atoms: _305  and  _306
REMARK  123  A    between atoms: _308  and  _310
REMARK  124  A    between atoms: _310  and  _311
REMARK  125  A    between atoms: _314  and  _316
REMARK  126  A    between atoms: _316  and  _317
REMARK  127  A    between atoms: _316  and  _319
REMARK  128  A    between atoms: _319  and  _320
REMARK  129  A    between atoms: _323  and  _325
REMARK  130  A    between atoms: _325  and  _326
REMARK  131  A    between atoms: _325  and  _328
REMARK  132  A    between atoms: _328  and  _329
REMARK  133  A    between atoms: _332  and  _334
REMARK  134  A    between atoms: _334  and  _335
REMARK  135  A    between atoms: _334  and  _337
REMARK  136  A    between atoms: _337  and  _338
REMARK  137  A    between atoms: _341  and  _343
REMARK  138  A    between atoms: _343  and  _344
REMARK  139  A    between atoms: _343  and  _346
REMARK  140  A    between atoms: _349  and  _351
REMARK  141  A    between atoms: _351  and  _352
REMARK  142  A    between atoms: _351  and  _354
REMARK  143  A    between atoms: _354  and  _355
REMARK  144  A    between atoms: _355  and  _356
REMARK  145  A    between atoms: _356  and  _357
REMARK  146  A    between atoms: _357  and  _358
REMARK  147  A    between atoms: _362  and  _364
REMARK  148  A    between atoms: _364  and  _365
REMARK  149  A    between atoms: _364  and  _367
REMARK  150  A    between atoms: _367  and  _368
REMARK  151  A    between atoms: _368  and  _369
REMARK  152  A    between atoms: _371  and  _373
REMARK  153  A    between atoms: _373  and  _374
REMARK  154  A    between atoms: _373  and  _376
REMARK  155  A    between atoms: _376  and  _377
REMARK  156  A    between atoms: _380  and  _382
REMARK  157  A    between atoms: _382  and  _383
REMARK  158  A    between atoms: _385  and  _387
REMARK  159  A    between atoms: _387  and  _388
REMARK  160  A    between atoms: _390  and  _392
REMARK  161  A    between atoms: _392  and  _393
REMARK  162  A    between atoms: _392  and  _395
REMARK  163  A    between atoms: _395  and  _396
REMARK  164  A    between atoms: _399  and  _401
REMARK  165  A    between atoms: _401  and  _402
REMARK  166  A    between atoms: _404  and  _406
REMARK  167  A    between atoms: _406  and  _407
REMARK  168  A    between atoms: _409  and  _411
REMARK  169  A    between atoms: _411  and  _412
REMARK  170  A    between atoms: _411  and  _414
REMARK  171  A    between atoms: _414  and  _415
REMARK  172  A    between atoms: _418  and  _420
REMARK  173  A    between atoms: _420  and  _421
REMARK  174  A    between atoms: _420  and  _423
REMARK  175  A    between atoms: _426  and  _428
REMARK  176  A    between atoms: _428  and  _429
REMARK  177  A    between atoms: _428  and  _431
REMARK  178  A    between atoms: _431  and  _432
REMARK  179  A    between atoms: _435  and  _437
REMARK  180  A    between atoms: _437  and  _438
REMARK  181  A    between atoms: _437  and  _440
REMARK  182  A    between atoms: _440  and  _441
REMARK  183  A    between atoms: _445  and  _446
REMARK  184  A    between atoms: _451  and  _453
REMARK  185  A    between atoms: _453  and  _454
REMARK  186  A    between atoms: _453  and  _456
REMARK  187  A    between atoms: _459  and  _461
REMARK  188  A    between atoms: _461  and  _462
REMARK  189  A    between atoms: _461  and  _464
REMARK  190  A    between atoms: _464  and  _465
REMARK  191  A    between atoms: _470  and  _472
REMARK  192  A    between atoms: _472  and  _473
REMARK  193  A    between atoms: _472  and  _475
REMARK  194  A    between atoms: _475  and  _476
REMARK  195  A    between atoms: _479  and  _481
REMARK  196  A    between atoms: _481  and  _482
REMARK  197  A    between atoms: _481  and  _484
REMARK  198  A    between atoms: _484  and  _485
REMARK  199  A    between atoms: _488  and  _490
REMARK  200  A    between atoms: _490  and  _491
REMARK  201  A    between atoms: _493  and  _495
REMARK  202  A    between atoms: _495  and  _496
REMARK  203  A    between atoms: _495  and  _498
REMARK  204  A    between atoms: _498  and  _499
REMARK  205  A    between atoms: _499  and  _500
REMARK  206  A    between atoms: _500  and  _501
REMARK  207  A    between atoms: _510  and  _512
REMARK  208  A    between atoms: _512  and  _513
REMARK  209  A    between atoms: _512  and  _515
REMARK  210  A    between atoms: _515  and  _516
REMARK                            x       y       z     vdW  Elec       q    Type
REMARK                         _______ _______ _______ _____ _____    ______ ____
ROOT
ATOM      1  NE  ARG A   1       6.474   8.632  11.331  0.00  0.00    -0.265 N 
ATOM      2  HE  ARG A   1       5.468   8.645  11.595  0.00  0.00    +0.259 HD
ATOM      3  CZ  ARG A   1       6.798   8.087  10.163  0.00  0.00    +0.342 C 
ATOM      4  NH2 ARG A   1       8.065   8.047   9.771  0.00  0.00    -0.292 N 
ATOM      5 HH21 ARG A   1       8.810   8.443  10.379  0.00  0.00    +0.255 HD
ATOM      6 HH22 ARG A   1       8.313   7.619   8.856  0.00  0.00    +0.255 HD
ATOM      7  NH1 ARG A   1       5.853   7.556   9.404  0.00  0.00    -0.292 N 
ATOM      8 HH11 ARG A   1       4.863   7.567   9.723  0.00  0.00    +0.255 HD
ATOM      9 HH12 ARG A   1       6.100   7.128   8.489  0.00  0.00    +0.255 HD
ENDROOT
BRANCH   1  10
ATOM     10  CD  ARG A   1       7.431   9.215  12.272  0.00  0.00    +0.174 C 
BRANCH  10  11
ATOM     11  CG  ARG A   1       6.679   9.821  13.436  0.00  0.00    +0.045 C 
BRANCH  11  12
ATOM     12  CB  ARG A   1       7.607  10.398  14.445  0.00  0.00    +0.029 C 
BRANCH  12  13
ATOM     13  CA  ARG A   1       6.892  10.986  15.656  0.00  0.00    +0.133 C 
BRANCH  13  14
ATOM     14  N   ARG A   1       6.189  12.224  15.279  0.00  0.00    -0.239 NA
ATOM     15  H   ARG A   1       6.168  12.518  14.282  0.00  0.00    +0.142 HD
ENDBRANCH  13  14
BRANCH  13  16
ATOM     16  C   ARG A   1       7.937  11.328  16.710  0.00  0.00    +0.224 C 
ATOM     17  O   ARG A   1       8.702  12.291  16.544  0.00  0.00    -0.287 OA
ENDBRANCH  13  16
ENDBRANCH  12  13
ENDBRANCH  11  12
ENDBRANCH  10  11
ENDBRANCH   1  10
TORSDOF 6
REMARK  Name = ../refined-set-2016/1d4l/1d4l_pocket.pdb
REMARK  210 active torsions:
REMARK  status: ('A' for Active; 'I' for Inactive)
REMARK    1  A    between atoms: _1  and  _3
REMARK    2  A    between atoms: _3  and  _4
REMARK    3  A    between atoms: _3  and  _6
REMARK    4  A    between atoms: _6  and  _7
REMARK    5  A    between atoms: _7  and  _8
REMARK    6  A    between atoms: _8  and  _9
REMARK    7  A    between atoms: _18  and  _20
REMARK    8  A    between atoms: _20  and  _21
REMARK    9  A    between atoms: _20  and  _23
REMARK   10  A    between atoms: _23  and  _24
REMARK   11  A    between atoms: _27  and  _29
REMARK   12  A    between atoms: _29  and  _30
REMARK   13  A    between atoms: _29  and  _32
REMARK   14  A    between atoms: _32  and  _33
REMARK   15  A    between atoms: _36  and  _38
REMARK   16  A    between atoms: _38  and  _39
REMARK   17  A    between atoms: _38  and  _41
REMARK   18  A    between atoms: _41  and  _42
REMARK   19  A    between atoms: _45  and  _47
REMARK   20  A    between atoms: _47  and  _48
REMARK   21  A    between atoms: _47  and  _50
REMARK   22  A    between atoms: _50  and  _51
REMARK   23  A    between atoms: _54  and  _56
REMARK   24  A    between atoms: _56  and  _57
REMARK   25  A    between atoms: _59  and  _61
REMARK   26  A    between atoms: _61  and  _62
REMARK   27  A    between atoms: _65  and  _67
REMARK   28  A    between atoms: _67  and  _68
REMARK   29  A    between atoms: _67  and  _70
REMARK   30  A    between atoms: _70  and  _71
REMARK   31  A    between atoms: _74  and  _76
REMARK   32  A    between atoms: _76  and  _77
REMARK   33  A    between atoms: _76  and  _79
REMARK   34  A    between atoms: _79  and  _80
REMARK   35  A    between atoms: _83  and  _85
REMARK   36  A    between atoms: _85  and  _86
REMARK   37  A    between atoms: _85  and  _88
REMARK   38  A    between atoms: _88  and  _89
REMARK   39  A    between atoms: _92  and  _94
REMARK   40  A    between atoms: _94  and  _95
REMARK   41  A    between atoms: _94  and  _97
REMARK   42  A    between atoms: _100  and  _102
REMARK   43  A    between atoms: _102  and  _103
REMARK   44  A    between atoms: _102  and  _105
REMARK   45  A    between atoms: _105  and  _106
REMARK   46  A    between atoms: _109  and  _111
REMARK   47  A    between atoms: _111  and  _112
REMARK   48  A    between atoms: _114  and  _116
REMARK   49  A    between atoms: _116  and  _117
REMARK   50  A    between atoms: _119  and  _121
REMARK   51  A    between atoms: _121  and  _122
REMARK   52  A    between atoms: _121  and  _124
REMARK   53  A    between atoms: _124  and  _125
REMARK   54  A    between atoms: _128  and  _130
REMARK   55  A    between atoms: _130  and  _131
REMARK   56  A    between atoms: _133  and  _135
REMARK   57  A    between atoms: _135  and  _136
REMARK   58  A    between atoms: _138  and  _140
REMARK   59  A    between atoms: _140  and  _141
REMARK   60  A    between atoms: _140  and  _143
REMARK   61  A    between atoms: _143  and  _144
REMARK   62  A    between atoms: _150  and  _152
REMARK   63  A    between atoms: _152  and  _153
REMARK   64  A    between atoms: _152  and  _155
REMARK   65  A    between atoms: _155  and  _156
REMARK   66  A    between atoms: _159  and  _161
REMARK   67  A    between atoms: _161  and  _162
REMARK   68  A    between atoms: _161  and  _164
REMARK   69  A    between atoms: _164  and  _165
REMARK   70  A    between atoms: _169  and  _170
REMARK   71  A    between atoms: _175  and  _177
REMARK   72  A    between atoms: _177  and  _178
REMARK   73  A    between atoms: _177  and  _180
REMARK   74  A    between atoms: _180  and  _181
REMARK   75  A    between atoms: _185  and  _186
REMARK   76  A    between atoms: _191  and  _193
REMARK   77  A    between atoms: _193  and  _194
REMARK   78  A    between atoms: _193  and  _196
REMARK   79  A    between atoms: _199  and  _201
REMARK   80  A    between atoms: _201  and  _202
REMARK   81  A    between atoms: _201  and  _204
REMARK   82  A    between atoms: _204  and  _205
REMARK   83  A    between atoms: _210  and  _212
REMARK   84  A    between atoms: _212  and  _213
REMARK   85  A    between atoms: _212  and  _215
REMARK   86  A    between atoms: _215  and  _216
REMARK   87  A    between atoms: _219  and  _221
REMARK   88  A    between atoms: _221  and  _222
REMARK   89  A    between atoms: _221  and  _224
REMARK   90  A    between atoms: _224  and  _225
REMARK   91  A    between atoms: _228  and  _230
REMARK   92  A    between atoms: _230  and  _231
REMARK   93  A    between atoms: _233  and  _235
REMARK   94  A    between atoms: _235  and  _236
REMARK   95  A    between atoms: _235  and  _238
REMARK   96  A    between atoms: _238  and  _239
REMARK   97  A    between atoms: _239  and  _240
REMARK   98  A    between atoms: _240  and  _241
REMARK   99  A    between atoms: _250  and  _252
REMARK  100  A    between atoms: _252  and  _253
REMARK  101  A    between atoms: _252  and  _255
REMARK  102  A    between atoms: _255  and  _256
REMARK  103  A    between atoms: _256  and  _257
REMARK  104  A    between atoms: _257  and  _258
REMARK  105  A    between atoms: _267  and  _269
REMARK  106  A    between atoms: _269  and  _270
REMARK  107  A    between atoms: _269  and  _272
REMARK  108  A    between atoms: _272  and  _273
REMARK  109  A    between atoms: _276  and  _278
REMARK  110  A    between atoms: _278  and  _279
REMARK  111  A    between atoms: _278  and  _281
REMARK  112  A    between atoms: _281  and  _282
REMARK  113  A    between atoms: _285  and  _287
REMARK  114  A    between atoms: _287  and  _288
REMARK  115  A    between atoms: _287  and  _290
REMARK  116  A    between atoms: _290  and  _291
REMARK  117  A    between atoms: _294  and  _296
REMARK  118  A    between atoms: _296  and  _297
REMARK  119  A    between atoms: _296  and  _299
REMARK  120  A    between atoms: _299  and  _300
REMARK  121  A    between atoms: _303  and  _305
REMARK  122  A    between atoms: _305  and  _306
REMARK  123  A    between atoms: _308  and  _310
REMARK  124  A    between atoms: _310  and  _311
REMARK  125  A    between atoms: _314  and  _316
REMARK  126  A    between atoms: _316  and  _317
REMARK  127  A    between atoms: _316  and  _319
REMARK  128  A    between atoms: _319  and  _320
REMARK  129  A    between atoms: _323  and  _325
REMARK  130  A    between atoms: _325  and  _326
REMARK  131  A    between atoms: _325  and  _328
REMARK  132  A    between atoms: _328  and  _329
REMARK  133  A    between atoms: _332  and  _334
REMARK  134  A    between atoms: _334  and  _335
REMARK  135  A    between atoms: _334  and  _337
REMARK  136  A    between atoms: _337  and  _338
REMARK  137  A    between atoms: _341  and  _343
REMARK  138  A    between atoms: _343  and  _344
REMARK  139  A    between atoms: _343  and  _346
REMARK  140  A    between atoms: _349  and  _351
REMARK  141  A    between atoms: _351  and  _352
REMARK  142  A    between atoms: _351  and  _354
REMARK  143  A    between atoms: _354  and  _355
REMARK  144  A    between atoms: _355  and  _356
REMARK  145  A    between atoms: _356  and  _357
REMARK  146  A    between atoms: _357  and  _358
REMARK  147  A    between atoms: _362  and  _364
REMARK  148  A    between atoms: _364  and  _365
REMARK  149  A    between atoms: _364  and  _367
REMARK  150  A    between atoms: _367  and  _368
REMARK  151  A    between atoms: _368  and  _369
REMARK  152  A    between atoms: _371  and  _373
REMARK  153  A    between atoms: _373  and  _374
REMARK  154  A    between atoms: _373  and  _376
REMARK  155  A    between atoms: _376  and  _377
REMARK  156  A    between atoms: _380  and  _382
REMARK  157  A    between atoms: _382  and  _383
REMARK  158  A    between atoms: _385  and  _387
REMARK  159  A    between atoms: _387  and  _388
REMARK  160  A    between atoms: _390  and  _392
REMARK  161  A    between atoms: _392  and  _393
REMARK  162  A    between atoms: _392  and  _395
REMARK  163  A    between atoms: _395  and  _396
REMARK  164  A    between atoms: _399  and  _401
REMARK  165  A    between atoms: _401  and  _402
REMARK  166  A    between atoms: _404  and  _406
REMARK  167  A    between atoms: _406  and  _407
REMARK  168  A    between atoms: _409  and  _411
REMARK  169  A    between atoms: _411  and  _412
REMARK  170  A    between atoms: _411  and  _414
REMARK  171  A    between atoms: _414  and  _415
REMARK  172  A    between atoms: _418  and  _420
REMARK  173  A    between atoms: _420  and  _421
REMARK  174  A    between atoms: _420  and  _423
REMARK  175  A    between atoms: _426  and  _428
REMARK  176  A    between atoms: _428  and  _429
REMARK  177  A    between atoms: _428  and  _431
REMARK  178  A    between atoms: _431  and  _432
REMARK  179  A    between atoms: _435  and  _437
REMARK  180  A    between atoms: _437  and  _438
REMARK  181  A    between atoms: _437  and  _440
REMARK  182  A    between atoms: _440  and  _441
REMARK  183  A    between atoms: _445  and  _446
REMARK  184  A    between atoms: _451  and  _453
REMARK  185  A    between atoms: _453  and  _454
REMARK  186  A    between atoms: _453  and  _456
REMARK  187  A    between atoms: _459  and  _461
REMARK  188  A    between atoms: _461  and  _462
REMARK  189  A    between atoms: _461  and  _464
REMARK  190  A    between atoms: _464  and  _465
REMARK  191  A    between atoms: _470  and  _472
REMARK  192  A    between atoms: _472  and  _473
REMARK  193  A    between atoms: _472  and  _475
REMARK  194  A    between atoms: _475  and  _476
REMARK  195  A    between atoms: _479  and  _481
REMARK  196  A    between atoms: _481  and  _482
REMARK  197  A    between atoms: _481  and  _484
REMARK  198  A    between atoms: _484  and  _485
REMARK  199  A    between atoms: _488  and  _490
REMARK  200  A    between atoms: _490  and  _491
REMARK  201  A    between atoms: _493  and  _495
REMARK  202  A    between atoms: _495  and  _496
REMARK  203  A    between atoms: _495  and  _498
REMARK  204  A    between atoms: _498  and  _499
REMARK  205  A    between atoms: _499  and  _500
REMARK  206  A    between atoms: _500  and  _501
REMARK  207  A    between atoms: _510  and  _512
REMARK  208  A    between atoms: _512  and  _513
REMARK  209  A    between atoms: _512  and  _515
REMARK  210  A    between atoms: _515  and  _516
REMARK                            x       y       z     vdW  Elec       q    Type
REMARK                         _______ _______ _______ _____ _____    ______ ____
ROOT
ATOM      1  C   GLY A   5       5.886  -1.966  20.116  0.00  0.00    +0.243 C 
ATOM      2  N   ALA A   6       7.166  -1.639  20.257  0.00  0.00    -0.297 N 
ATOM      3  H   ALA A   6       7.402  -0.721  20.684  0.00  0.00    +0.150 HD
ATOM      4  O   GLY A   5       5.522  -3.024  19.615  0.00  0.00    -0.273 OA
ENDROOT
BRANCH   2   5
ATOM      5  CA  ALA A   6       8.266  -2.526  19.832  0.00  0.00    +0.149 C 
ATOM      6  CB  ALA A   6       9.366  -1.706  19.178  0.00  0.00    +0.031 C 
BRANCH   5   7
ATOM      7  C   ALA A   6       8.826  -3.243  21.062  0.00  0.00    +0.241 C 
ATOM      8  O   ALA A   6       9.275  -2.589  22.012  0.00  0.00    -0.273 OA
ATOM      9  N   ASP A   7       8.805  -4.573  21.060  0.00  0.00    -0.297 N 
ATOM     10  H   ASP A   7       8.410  -5.084  20.245  0.00  0.00    +0.150 HD
BRANCH   9  11
ATOM     11  CA  ASP A   7       9.340  -5.325  22.210  0.00  0.00    +0.160 C 
BRANCH  11  12
ATOM     12  C   ASP A   7      10.847  -5.141  22.356  0.00  0.00    +0.241 C 
ATOM     13  O   ASP A   7      11.359  -4.982  23.471  0.00  0.00    -0.273 OA
ATOM     14  N   ASP A   8      11.544  -5.187  21.220  0.00  0.00    -0.297 N 
ATOM     15  H   ASP A   8      11.030  -5.317  20.325  0.00  0.00    +0.150 HD
BRANCH  14  16
ATOM     16  CA  ASP A   8      13.006  -5.062  21.178  0.00  0.00    +0.160 C 
BRANCH  16  17
ATOM     17  C   ASP A   8      13.406  -3.893  20.319  0.00  0.00    +0.241 C 
ATOM     18  N   THR A   9      14.656  -3.485  20.466  0.00  0.00    -0.295 N 
ATOM     19  H   THR A   9      15.262  -3.989  21.145  0.00  0.00    +0.150 HD
ATOM     20  O   ASP A   8      12.595  -3.362  19.573  0.00  0.00    -0.273 OA
BRANCH  18  21
ATOM     21  CA  THR A   9      15.233  -2.360  19.723  0.00  0.00    +0.176 C 
BRANCH  21  22
ATOM     22  C   THR A   9      15.715  -2.863  18.358  0.00  0.00    +0.243 C 
ATOM     23  O   THR A   9      16.353  -3.909  18.284  0.00  0.00    -0.273 OA
ATOM     24  N   VAL A  10      15.364  -2.156  17.284  0.00  0.00    -0.298 N 
ATOM     25  H   VAL A  10      14.776  -1.307  17.404  0.00  0.00    +0.150 HD
BRANCH  24  26
ATOM     26  CA  VAL A  10      15.791  -2.551  15.928  0.00  0.00    +0.137 C 
BRANCH  26  27
ATOM     27  CB  VAL A  10      14.631  -3.122  15.045  0.00  0.00    +0.026 C 
ATOM     28  CG2 VAL A  10      13.568  -2.108  14.811  0.00  0.00    +0.002 C 
ATOM     29  CG1 VAL A  10      15.176  -3.627  13.715  0.00  0.00    +0.002 C 
ENDBRANCH  26  27
BRANCH  26  30
ATOM     30  C   VAL A  10      16.512  -1.392  15.253  0.00  0.00    +0.227 C 
ATOM     31  O   VAL A  10      15.968  -0.302  15.094  0.00  0.00    -0.286 OA
ENDBRANCH  26  30
ENDBRANCH  24  26
ENDBRANCH  21  22
BRANCH  21  32
ATOM     32  CB  THR A   9      16.404  -1.768  20.560  0.00  0.00    +0.137 C 
ATOM     33  CG2 THR A   9      17.232  -0.779  19.757  0.00  0.00    +0.034 C 
BRANCH  32  34
ATOM     34  OG1 THR A   9      15.866  -1.127  21.729  0.00  0.00    -0.382 OA
ATOM     35  HG1 THR A   9      15.371  -1.792  22.270  0.00  0.00    +0.210 HD
ENDBRANCH  32  34
ENDBRANCH  21  32
ENDBRANCH  18  21
ENDBRANCH  16  17
BRANCH  16  36
ATOM     36  CB  ASP A   8      13.607  -6.333  20.571  0.00  0.00    +0.143 C 
BRANCH  36  37
ATOM     37  CG  ASP A   8      12.896  -7.591  21.034  0.00  0.00    +0.367 C 
ATOM     38  OD2 ASP A   8      13.111  -7.988  22.200  0.00  0.00    -0.246 OA
ATOM     39  OD1 ASP A   8      12.109  -8.162  20.238  0.00  0.00    -0.246 OA
ENDBRANCH  36  37
ENDBRANCH  16  36
ENDBRANCH  14  16
ENDBRANCH  11  12
BRANCH  11  40
ATOM     40  CB  ASP A   7       9.064  -6.824  22.074  0.00  0.00    +0.143 C 
BRANCH  40  41
ATOM     41  CG  ASP A   7       7.609  -7.184  22.280  0.00  0.00    +0.367 C 
ATOM     42  OD2 ASP A   7       6.859  -6.459  22.966  0.00  0.00    -0.246 OA
ATOM     43  OD1 ASP A   7       7.218  -8.240  21.761  0.00  0.00    -0.246 OA
ENDBRANCH  40  41
ENDBRANCH  11  40
ENDBRANCH   9  11
ENDBRANCH   5   7
ENDBRANCH   2   5
BRANCH   1  44
ATOM     44  CA  GLY A   5       4.864  -0.951  20.610  0.00  0.00    +0.176 C 
BRANCH  44  47
ATOM     45  C   THR A   4       5.680   0.261  22.548  0.00  0.00    +0.243 C 
ATOM     46  O   THR A   4       5.404  -0.667  23.291  0.00  0.00    -0.273 OA
ATOM     47  N   GLY A   5       5.466   0.217  21.237  0.00  0.00    -0.295 N 
ATOM     48  H   GLY A   5       5.733   1.032  20.648  0.00  0.00    +0.150 HD
BRANCH  45  49
ATOM     49  CA  THR A   4       6.331   1.536  23.102  0.00  0.00    +0.176 C 
BRANCH  49  51
ATOM     50  C   ASP A   3       8.035   2.024  21.385  0.00  0.00    +0.241 C 
ATOM     51  N   THR A   4       6.932   2.380  22.044  0.00  0.00    -0.295 N 
ATOM     52  H   THR A   4       6.477   3.284  21.806  0.00  0.00    +0.150 HD
ATOM     53  O   ASP A   3       8.582   0.933  21.541  0.00  0.00    -0.273 OA
BRANCH  50  54
ATOM     54  CA  ASP A   3       8.530   2.992  20.303  0.00  0.00    +0.160 C 
BRANCH  54  56
ATOM     55  C   LEU A   2       9.575   5.190  20.667  0.00  0.00    +0.241 C 
ATOM     56  N   ASP A   3       9.662   3.856  20.658  0.00  0.00    -0.297 N 
ATOM     57  H   ASP A   3      10.568   3.413  20.913  0.00  0.00    +0.150 HD
ATOM     58  O   LEU A   2       8.521   5.807  20.480  0.00  0.00    -0.273 OA
BRANCH  55  59
ATOM     59  CA  LEU A   2      10.873   5.940  20.922  0.00  0.00    +0.149 C 
BRANCH  59  61
ATOM     60  C   LEU A   1      11.730   5.795  18.641  0.00  0.00    +0.238 C 
ATOM     61  N   LEU A   2      11.165   6.533  19.607  0.00  0.00    -0.297 N 
ATOM     62  H   LEU A   2      10.932   7.530  19.426  0.00  0.00    +0.150 HD
ATOM     63  O   LEU A   1      12.136   4.645  18.851  0.00  0.00    -0.274 OA
BRANCH  60  64
ATOM     64  CA  LEU A   1      11.949   6.455  17.259  0.00  0.00    +0.145 C 
BRANCH  64  65
ATOM     65  N   LEU A   1      13.340   6.298  16.820  0.00  0.00    -0.238 NA
ATOM     66  H   LEU A   1      13.585   5.452  16.268  0.00  0.00    +0.142 HD
ENDBRANCH  64  65
BRANCH  64  67
ATOM     67  CB  LEU A   1      11.052   5.798  16.212  0.00  0.00    +0.026 C 
BRANCH  67  68
ATOM     68  CG  LEU A   1       9.550   6.013  16.172  0.00  0.00    +0.002 C 
ATOM     69  CD2 LEU A   1       8.909   4.672  15.933  0.00  0.00    +0.000 C 
ATOM     70  CD1 LEU A   1       9.197   6.944  15.034  0.00  0.00    +0.000 C 
ENDBRANCH  67  68
ENDBRANCH  64  67
ENDBRANCH  60  64
ENDBRANCH  59  61
BRANCH  59  71
ATOM     71  CB  LEU A   2      10.696   7.011  21.990  0.00  0.00    +0.029 C 
BRANCH  71  72
ATOM     72  CG  LEU A   2      11.985   7.774  22.298  0.00  0.00    +0.002 C 
ATOM     73  CD2 LEU A   2      11.710   8.784  23.387  0.00  0.00    +0.000 C 
ATOM     74  CD1 LEU A   2      13.098   6.832  22.728  0.00  0.00    +0.000 C 
ENDBRANCH  71  72
ENDBRANCH  59  71
ENDBRANCH  55  59
ENDBRANCH  54  56
BRANCH  54  75
ATOM     75  CB  ASP A   3       8.964   2.196  19.061  0.00  0.00    +0.143 C 
BRANCH  75  76
ATOM     76  CG  ASP A   3       7.806   1.550  18.324  0.00  0.00    +0.367 C 
ATOM     77  OD2 ASP A   3       6.663   1.571  18.815  0.00  0.00    -0.246 OA
ATOM     78  OD1 ASP A   3       8.048   1.014  17.233  0.00  0.00    -0.246 OA
ENDBRANCH  75  76
ENDBRANCH  54  75
ENDBRANCH  50  54
ENDBRANCH  49  51
BRANCH  49  79
ATOM     79  CB  THR A   4       5.267   2.298  23.882  0.00  0.00    +0.137 C 
ATOM     80  CG2 THR A   4       5.880   3.526  24.557  0.00  0.00    +0.034 C 
BRANCH  79  81
ATOM     81  OG1 THR A   4       4.226   2.695  22.982  0.00  0.00    -0.382 OA
ATOM     82  HG1 THR A   4       3.825   1.890  22.567  0.00  0.00    +0.210 HD
ENDBRANCH  79  81
ENDBRANCH  49  79
ENDBRANCH  45  49
ENDBRANCH  44  47
ENDBRANCH   1  44
TORSDOF 35
REMARK  Name = ../refined-set-2016/1d4l/1d4l_pocket.pdb
REMARK  210 active torsions:
REMARK  status: ('A' for Active; 'I' for Inactive)
REMARK    1  A    between atoms: _1  and  _3
REMARK    2  A    between atoms: _3  and  _4
REMARK    3  A    between atoms: _3  and  _6
REMARK    4  A    between atoms: _6  and  _7
REMARK    5  A    between atoms: _7  and  _8
REMARK    6  A    between atoms: _8  and  _9
REMARK    7  A    between atoms: _18  and  _20
REMARK    8  A    between atoms: _20  and  _21
REMARK    9  A    between atoms: _20  and  _23
REMARK   10  A    between atoms: _23  and  _24
REMARK   11  A    between atoms: _27  and  _29
REMARK   12  A    between atoms: _29  and  _30
REMARK   13  A    between atoms: _29  and  _32
REMARK   14  A    between atoms: _32  and  _33
REMARK   15  A    between atoms: _36  and  _38
REMARK   16  A    between atoms: _38  and  _39
REMARK   17  A    between atoms: _38  and  _41
REMARK   18  A    between atoms: _41  and  _42
REMARK   19  A    between atoms: _45  and  _47
REMARK   20  A    between atoms: _47  and  _48
REMARK   21  A    between atoms: _47  and  _50
REMARK   22  A    between atoms: _50  and  _51
REMARK   23  A    between atoms: _54  and  _56
REMARK   24  A    between atoms: _56  and  _57
REMARK   25  A    between atoms: _59  and  _61
REMARK   26  A    between atoms: _61  and  _62
REMARK   27  A    between atoms: _65  and  _67
REMARK   28  A    between atoms: _67  and  _68
REMARK   29  A    between atoms: _67  and  _70
REMARK   30  A    between atoms: _70  and  _71
REMARK   31  A    between atoms: _74  and  _76
REMARK   32  A    between atoms: _76  and  _77
REMARK   33  A    between atoms: _76  and  _79
REMARK   34  A    between atoms: _79  and  _80
REMARK   35  A    between atoms: _83  and  _85
REMARK   36  A    between atoms: _85  and  _86
REMARK   37  A    between atoms: _85  and  _88
REMARK   38  A    between atoms: _88  and  _89
REMARK   39  A    between atoms: _92  and  _94
REMARK   40  A    between atoms: _94  and  _95
REMARK   41  A    between atoms: _94  and  _97
REMARK   42  A    between atoms: _100  and  _102
REMARK   43  A    between atoms: _102  and  _103
REMARK   44  A    between atoms: _102  and  _105
REMARK   45  A    between atoms: _105  and  _106
REMARK   46  A    between atoms: _109  and  _111
REMARK   47  A    between atoms: _111  and  _112
REMARK   48  A    between atoms: _114  and  _116
REMARK   49  A    between atoms: _116  and  _117
REMARK   50  A    between atoms: _119  and  _121
REMARK   51  A    between atoms: _121  and  _122
REMARK   52  A    between atoms: _121  and  _124
REMARK   53  A    between atoms: _124  and  _125
REMARK   54  A    between atoms: _128  and  _130
REMARK   55  A    between atoms: _130  and  _131
REMARK   56  A    between atoms: _133  and  _135
REMARK   57  A    between atoms: _135  and  _136
REMARK   58  A    between atoms: _138  and  _140
REMARK   59  A    between atoms: _140  and  _141
REMARK   60  A    between atoms: _140  and  _143
REMARK   61  A    between atoms: _143  and  _144
REMARK   62  A    between atoms: _150  and  _152
REMARK   63  A    between atoms: _152  and  _153
REMARK   64  A    between atoms: _152  and  _155
REMARK   65  A    between atoms: _155  and  _156
REMARK   66  A    between atoms: _159  and  _161
REMARK   67  A    between atoms: _161  and  _162
REMARK   68  A    between atoms: _161  and  _164
REMARK   69  A    between atoms: _164  and  _165
REMARK   70  A    between atoms: _169  and  _170
REMARK   71  A    between atoms: _175  and  _177
REMARK   72  A    between atoms: _177  and  _178
REMARK   73  A    between atoms: _177  and  _180
REMARK   74  A    between atoms: _180  and  _181
REMARK   75  A    between atoms: _185  and  _186
REMARK   76  A    between atoms: _191  and  _193
REMARK   77  A    between atoms: _193  and  _194
REMARK   78  A    between atoms: _193  and  _196
REMARK   79  A    between atoms: _199  and  _201
REMARK   80  A    between atoms: _201  and  _202
REMARK   81  A    between atoms: _201  and  _204
REMARK   82  A    between atoms: _204  and  _205
REMARK   83  A    between atoms: _210  and  _212
REMARK   84  A    between atoms: _212  and  _213
REMARK   85  A    between atoms: _212  and  _215
REMARK   86  A    between atoms: _215  and  _216
REMARK   87  A    between atoms: _219  and  _221
REMARK   88  A    between atoms: _221  and  _222
REMARK   89  A    between atoms: _221  and  _224
REMARK   90  A    between atoms: _224  and  _225
REMARK   91  A    between atoms: _228  and  _230
REMARK   92  A    between atoms: _230  and  _231
REMARK   93  A    between atoms: _233  and  _235
REMARK   94  A    between atoms: _235  and  _236
REMARK   95  A    between atoms: _235  and  _238
REMARK   96  A    between atoms: _238  and  _239
REMARK   97  A    between atoms: _239  and  _240
REMARK   98  A    between atoms: _240  and  _241
REMARK   99  A    between atoms: _250  and  _252
REMARK  100  A    between atoms: _252  and  _253
REMARK  101  A    between atoms: _252  and  _255
REMARK  102  A    between atoms: _255  and  _256
REMARK  103  A    between atoms: _256  and  _257
REMARK  104  A    between atoms: _257  and  _258
REMARK  105  A    between atoms: _267  and  _269
REMARK  106  A    between atoms: _269  and  _270
REMARK  107  A    between atoms: _269  and  _272
REMARK  108  A    between atoms: _272  and  _273
REMARK  109  A    between atoms: _276  and  _278
REMARK  110  A    between atoms: _278  and  _279
REMARK  111  A    between atoms: _278  and  _281
REMARK  112  A    between atoms: _281  and  _282
REMARK  113  A    between atoms: _285  and  _287
REMARK  114  A    between atoms: _287  and  _288
REMARK  115  A    between atoms: _287  and  _290
REMARK  116  A    between atoms: _290  and  _291
REMARK  117  A    between atoms: _294  and  _296
REMARK  118  A    between atoms: _296  and  _297
REMARK  119  A    between atoms: _296  and  _299
REMARK  120  A    between atoms: _299  and  _300
REMARK  121  A    between atoms: _303  and  _305
REMARK  122  A    between atoms: _305  and  _306
REMARK  123  A    between atoms: _308  and  _310
REMARK  124  A    between atoms: _310  and  _311
REMARK  125  A    between atoms: _314  and  _316
REMARK  126  A    between atoms: _316  and  _317
REMARK  127  A    between atoms: _316  and  _319
REMARK  128  A    between atoms: _319  and  _320
REMARK  129  A    between atoms: _323  and  _325
REMARK  130  A    between atoms: _325  and  _326
REMARK  131  A    between atoms: _325  and  _328
REMARK  132  A    between atoms: _328  and  _329
REMARK  133  A    between atoms: _332  and  _334
REMARK  134  A    between atoms: _334  and  _335
REMARK  135  A    between atoms: _334  and  _337
REMARK  136  A    between atoms: _337  and  _338
REMARK  137  A    between atoms: _341  and  _343
REMARK  138  A    between atoms: _343  and  _344
REMARK  139  A    between atoms: _343  and  _346
REMARK  140  A    between atoms: _349  and  _351
REMARK  141  A    between atoms: _351  and  _352
REMARK  142  A    between atoms: _351  and  _354
REMARK  143  A    between atoms: _354  and  _355
REMARK  144  A    between atoms: _355  and  _356
REMARK  145  A    between atoms: _356  and  _357
REMARK  146  A    between atoms: _357  and  _358
REMARK  147  A    between atoms: _362  and  _364
REMARK  148  A    between atoms: _364  and  _365
REMARK  149  A    between atoms: _364  and  _367
REMARK  150  A    between atoms: _367  and  _368
REMARK  151  A    between atoms: _368  and  _369
REMARK  152  A    between atoms: _371  and  _373
REMARK  153  A    between atoms: _373  and  _374
REMARK  154  A    between atoms: _373  and  _376
REMARK  155  A    between atoms: _376  and  _377
REMARK  156  A    between atoms: _380  and  _382
REMARK  157  A    between atoms: _382  and  _383
REMARK  158  A    between atoms: _385  and  _387
REMARK  159  A    between atoms: _387  and  _388
REMARK  160  A    between atoms: _390  and  _392
REMARK  161  A    between atoms: _392  and  _393
REMARK  162  A    between atoms: _392  and  _395
REMARK  163  A    between atoms: _395  and  _396
REMARK  164  A    between atoms: _399  and  _401
REMARK  165  A    between atoms: _401  and  _402
REMARK  166  A    between atoms: _404  and  _406
REMARK  167  A    between atoms: _406  and  _407
REMARK  168  A    between atoms: _409  and  _411
REMARK  169  A    between atoms: _411  and  _412
REMARK  170  A    between atoms: _411  and  _414
REMARK  171  A    between atoms: _414  and  _415
REMARK  172  A    between atoms: _418  and  _420
REMARK  173  A    between atoms: _420  and  _421
REMARK  174  A    between atoms: _420  and  _423
REMARK  175  A    between atoms: _426  and  _428
REMARK  176  A    between atoms: _428  and  _429
REMARK  177  A    between atoms: _428  and  _431
REMARK  178  A    between atoms: _431  and  _432
REMARK  179  A    between atoms: _435  and  _437
REMARK  180  A    between atoms: _437  and  _438
REMARK  181  A    between atoms: _437  and  _440
REMARK  182  A    between atoms: _440  and  _441
REMARK  183  A    between atoms: _445  and  _446
REMARK  184  A    between atoms: _451  and  _453
REMARK  185  A    between atoms: _453  and  _454
REMARK  186  A    between atoms: _453  and  _456
REMARK  187  A    between atoms: _459  and  _461
REMARK  188  A    between atoms: _461  and  _462
REMARK  189  A    between atoms: _461  and  _464
REMARK  190  A    between atoms: _464  and  _465
REMARK  191  A    between atoms: _470  and  _472
REMARK  192  A    between atoms: _472  and  _473
REMARK  193  A    between atoms: _472  and  _475
REMARK  194  A    between atoms: _475  and  _476
REMARK  195  A    between atoms: _479  and  _481
REMARK  196  A    between atoms: _481  and  _482
REMARK  197  A    between atoms: _481  and  _484
REMARK  198  A    between atoms: _484  and  _485
REMARK  199  A    between atoms: _488  and  _490
REMARK  200  A    between atoms: _490  and  _491
REMARK  201  A    between atoms: _493  and  _495
REMARK  202  A    between atoms: _495  and  _496
REMARK  203  A    between atoms: _495  and  _498
REMARK  204  A    between atoms: _498  and  _499
REMARK  205  A    between atoms: _499  and  _500
REMARK  206  A    between atoms: _500  and  _501
REMARK  207  A    between atoms: _510  and  _512
REMARK  208  A    between atoms: _512  and  _513
REMARK  209  A    between atoms: _512  and  _515
REMARK  210  A    between atoms: _515  and  _516
REMARK                            x       y       z     vdW  Elec       q    Type
REMARK                         _______ _______ _______ _____ _____    ______ ____
ROOT
ATOM      1  C   ILE A   3       9.526  -9.951  12.780  0.00  0.00    +0.241 C 
ATOM      2  N   GLY A   4       8.291  -9.988  13.252  0.00  0.00    -0.295 N 
ATOM      3  H   GLY A   4       8.114 -10.242  14.245  0.00  0.00    +0.150 HD
ATOM      4  O   ILE A   3       9.773  -9.682  11.615  0.00  0.00    -0.273 OA
ENDROOT
BRANCH   2   5
ATOM      5  CA  GLY A   4       7.194  -9.672  12.372  0.00  0.00    +0.176 C 
BRANCH   5   6
ATOM      6  C   GLY A   4       6.456  -8.419  12.759  0.00  0.00    +0.243 C 
ATOM      7  O   GLY A   4       6.303  -8.092  13.927  0.00  0.00    -0.273 OA
ATOM      8  N   GLY A   5       5.994  -7.708  11.757  0.00  0.00    -0.295 N 
ATOM      9  H   GLY A   5       6.162  -8.011  10.776  0.00  0.00    +0.150 HD
BRANCH   8  10
ATOM     10  CA  GLY A   5       5.251  -6.504  12.030  0.00  0.00    +0.176 C 
BRANCH  10  11
ATOM     11  C   GLY A   5       4.122  -6.453  11.047  0.00  0.00    +0.243 C 
ATOM     12  N   ILE A   6       3.593  -5.259  10.827  0.00  0.00    -0.297 N 
ATOM     13  H   ILE A   6       3.996  -4.423  11.295  0.00  0.00    +0.150 HD
ATOM     14  O   GLY A   5       3.743  -7.474  10.459  0.00  0.00    -0.273 OA
BRANCH  12  15
ATOM     15  CA  ILE A   6       2.448  -5.106   9.932  0.00  0.00    +0.149 C 
BRANCH  15  16
ATOM     16  C   ILE A   6       2.477  -5.798   8.572  0.00  0.00    +0.241 C 
ATOM     17  O   ILE A   6       1.585  -6.582   8.289  0.00  0.00    -0.273 OA
ATOM     18  N   GLY A   7       3.522  -5.599   7.778  0.00  0.00    -0.295 N 
ATOM     19  H   GLY A   7       4.309  -4.995   8.090  0.00  0.00    +0.150 HD
BRANCH  18  20
ATOM     20  CA  GLY A   7       3.558  -6.232   6.468  0.00  0.00    +0.176 C 
BRANCH  20  21
ATOM     21  C   GLY A   7       4.113  -7.648   6.401  0.00  0.00    +0.243 C 
ATOM     22  N   GLY A   8       4.596  -8.147   7.534  0.00  0.00    -0.296 N 
ATOM     23  H   GLY A   8       4.552  -7.565   8.395  0.00  0.00    +0.150 HD
ATOM     24  O   GLY A   7       4.095  -8.273   5.343  0.00  0.00    -0.273 OA
BRANCH  22  25
ATOM     25  CA  GLY A   8       5.182  -9.471   7.618  0.00  0.00    +0.163 C 
BRANCH  25  26
ATOM     26  C   GLY A   8       6.435  -9.511   8.469  0.00  0.00    +0.229 C 
ATOM     27  O   GLY A   8       6.616  -8.682   9.361  0.00  0.00    -0.286 OA
ENDBRANCH  25  26
ENDBRANCH  22  25
ENDBRANCH  20  21
ENDBRANCH  18  20
ENDBRANCH  15  16
BRANCH  15  28
ATOM     28  CB  ILE A   6       1.944  -3.631   9.898  0.00  0.00    +0.027 C 
ATOM     29  CG2 ILE A   6       1.199  -3.313   8.610  0.00  0.00    +0.002 C 
BRANCH  28  30
ATOM     30  CG1 ILE A   6       1.003  -3.454  11.088  0.00  0.00    +0.002 C 
ATOM     31  CD1 ILE A   6       0.161  -2.229  11.013  0.00  0.00    +0.000 C 
ENDBRANCH  28  30
ENDBRANCH  15  28
ENDBRANCH  12  15
ENDBRANCH  10  11
ENDBRANCH   8  10
ENDBRANCH   5   6
ENDBRANCH   2   5
BRANCH   1  32
ATOM     32  CA  ILE A   3      10.643 -10.324  13.743  0.00  0.00    +0.149 C 
BRANCH  32  35
ATOM     33  C   MET A   2      11.953 -12.331  13.377  0.00  0.00    +0.241 C 
ATOM     34  O   MET A   2      11.578 -12.793  14.453  0.00  0.00    -0.273 OA
ATOM     35  N   ILE A   3      11.620 -11.112  12.973  0.00  0.00    -0.297 N 
ATOM     36  H   ILE A   3      12.049 -10.713  12.113  0.00  0.00    +0.150 HD
BRANCH  33  37
ATOM     37  CA  MET A   2      12.931 -13.109  12.512  0.00  0.00    +0.149 C 
BRANCH  37  39
ATOM     38  C   LYS A   1      15.267 -13.377  13.187  0.00  0.00    +0.238 C 
ATOM     39  N   MET A   2      13.986 -13.651  13.376  0.00  0.00    -0.297 N 
ATOM     40  H   MET A   2      13.717 -14.273  14.165  0.00  0.00    +0.150 HD
ATOM     41  O   LYS A   1      15.686 -12.696  12.247  0.00  0.00    -0.274 OA
BRANCH  38  42
ATOM     42  CA  LYS A   1      16.217 -13.979  14.207  0.00  0.00    +0.145 C 
BRANCH  42  43
ATOM     43  N   LYS A   1      17.549 -14.067  13.635  0.00  0.00    -0.238 NA
ATOM     44  H   LYS A   1      17.810 -13.439  12.848  0.00  0.00    +0.142 HD
ENDBRANCH  42  43
BRANCH  42  45
ATOM     45  CB  LYS A   1      16.283 -13.081  15.446  0.00  0.00    +0.026 C 
BRANCH  45  46
ATOM     46  CG  LYS A   1      15.096 -13.185  16.345  0.00  0.00    -0.000 C 
BRANCH  46  47
ATOM     47  CD  LYS A   1      15.228 -12.228  17.502  0.00  0.00    -0.024 C 
BRANCH  47  48
ATOM     48  CE  LYS A   1      14.185 -12.554  18.555  0.00  0.00    -0.086 C 
BRANCH  48  49
ATOM     49  NZ  LYS A   1      14.144 -11.543  19.650  0.00  0.00    +0.380 N 
ATOM     50  HZ1 LYS A   1      13.416 -11.813  20.342  0.00  0.00    -0.089 HD
ATOM     51  HZ2 LYS A   1      15.072 -11.503  20.119  0.00  0.00    -0.089 HD
ATOM     52  HZ3 LYS A   1      13.916 -10.610  19.251  0.00  0.00    -0.089 HD
ENDBRANCH  48  49
ENDBRANCH  47  48
ENDBRANCH  46  47
ENDBRANCH  45  46
ENDBRANCH  42  45
ENDBRANCH  38  42
ENDBRANCH  37  39
BRANCH  37  53
ATOM     53  CB  MET A   2      12.141 -14.260  11.889  0.00  0.00    +0.041 C 
BRANCH  53  54
ATOM     54  CG  MET A   2      12.927 -15.115  10.948  0.00  0.00    +0.060 C 
BRANCH  54  55
ATOM     55  SD  MET A   2      13.193 -14.243   9.434  0.00  0.00    -0.139 S 
ATOM     56  CE  MET A   2      11.939 -14.986   8.371  0.00  0.00    +0.069 C 
ENDBRANCH  54  55
ENDBRANCH  53  54
ENDBRANCH  37  53
ENDBRANCH  33  37
ENDBRANCH  32  35
BRANCH  32  57
ATOM     57  CB  ILE A   3      11.257  -9.027  14.411  0.00  0.00    +0.027 C 
ATOM     58  CG2 ILE A   3      12.274  -9.399  15.485  0.00  0.00    +0.002 C 
BRANCH  57  59
ATOM     59  CG1 ILE A   3      11.851  -8.081  13.359  0.00  0.00    +0.002 C 
ATOM     60  CD1 ILE A   3      12.271  -6.733  13.922  0.00  0.00    +0.000 C 
ENDBRANCH  57  59
ENDBRANCH  32  57
ENDBRANCH   1  32
TORSDOF 28
REMARK  Name = ../refined-set-2016/1d4l/1d4l_pocket.pdb
REMARK  210 active torsions:
REMARK  status: ('A' for Active; 'I' for Inactive)
REMARK    1  A    between atoms: _1  and  _3
REMARK    2  A    between atoms: _3  and  _4
REMARK    3  A    between atoms: _3  and  _6
REMARK    4  A    between atoms: _6  and  _7
REMARK    5  A    between atoms: _7  and  _8
REMARK    6  A    between atoms: _8  and  _9
REMARK    7  A    between atoms: _18  and  _20
REMARK    8  A    between atoms: _20  and  _21
REMARK    9  A    between atoms: _20  and  _23
REMARK   10  A    between atoms: _23  and  _24
REMARK   11  A    between atoms: _27  and  _29
REMARK   12  A    between atoms: _29  and  _30
REMARK   13  A    between atoms: _29  and  _32
REMARK   14  A    between atoms: _32  and  _33
REMARK   15  A    between atoms: _36  and  _38
REMARK   16  A    between atoms: _38  and  _39
REMARK   17  A    between atoms: _38  and  _41
REMARK   18  A    between atoms: _41  and  _42
REMARK   19  A    between atoms: _45  and  _47
REMARK   20  A    between atoms: _47  and  _48
REMARK   21  A    between atoms: _47  and  _50
REMARK   22  A    between atoms: _50  and  _51
REMARK   23  A    between atoms: _54  and  _56
REMARK   24  A    between atoms: _56  and  _57
REMARK   25  A    between atoms: _59  and  _61
REMARK   26  A    between atoms: _61  and  _62
REMARK   27  A    between atoms: _65  and  _67
REMARK   28  A    between atoms: _67  and  _68
REMARK   29  A    between atoms: _67  and  _70
REMARK   30  A    between atoms: _70  and  _71
REMARK   31  A    between atoms: _74  and  _76
REMARK   32  A    between atoms: _76  and  _77
REMARK   33  A    between atoms: _76  and  _79
REMARK   34  A    between atoms: _79  and  _80
REMARK   35  A    between atoms: _83  and  _85
REMARK   36  A    between atoms: _85  and  _86
REMARK   37  A    between atoms: _85  and  _88
REMARK   38  A    between atoms: _88  and  _89
REMARK   39  A    between atoms: _92  and  _94
REMARK   40  A    between atoms: _94  and  _95
REMARK   41  A    between atoms: _94  and  _97
REMARK   42  A    between atoms: _100  and  _102
REMARK   43  A    between atoms: _102  and  _103
REMARK   44  A    between atoms: _102  and  _105
REMARK   45  A    between atoms: _105  and  _106
REMARK   46  A    between atoms: _109  and  _111
REMARK   47  A    between atoms: _111  and  _112
REMARK   48  A    between atoms: _114  and  _116
REMARK   49  A    between atoms: _116  and  _117
REMARK   50  A    between atoms: _119  and  _121
REMARK   51  A    between atoms: _121  and  _122
REMARK   52  A    between atoms: _121  and  _124
REMARK   53  A    between atoms: _124  and  _125
REMARK   54  A    between atoms: _128  and  _130
REMARK   55  A    between atoms: _130  and  _131
REMARK   56  A    between atoms: _133  and  _135
REMARK   57  A    between atoms: _135  and  _136
REMARK   58  A    between atoms: _138  and  _140
REMARK   59  A    between atoms: _140  and  _141
REMARK   60  A    between atoms: _140  and  _143
REMARK   61  A    between atoms: _143  and  _144
REMARK   62  A    between atoms: _150  and  _152
REMARK   63  A    between atoms: _152  and  _153
REMARK   64  A    between atoms: _152  and  _155
REMARK   65  A    between atoms: _155  and  _156
REMARK   66  A    between atoms: _159  and  _161
REMARK   67  A    between atoms: _161  and  _162
REMARK   68  A    between atoms: _161  and  _164
REMARK   69  A    between atoms: _164  and  _165
REMARK   70  A    between atoms: _169  and  _170
REMARK   71  A    between atoms: _175  and  _177
REMARK   72  A    between atoms: _177  and  _178
REMARK   73  A    between atoms: _177  and  _180
REMARK   74  A    between atoms: _180  and  _181
REMARK   75  A    between atoms: _185  and  _186
REMARK   76  A    between atoms: _191  and  _193
REMARK   77  A    between atoms: _193  and  _194
REMARK   78  A    between atoms: _193  and  _196
REMARK   79  A    between atoms: _199  and  _201
REMARK   80  A    between atoms: _201  and  _202
REMARK   81  A    between atoms: _201  and  _204
REMARK   82  A    between atoms: _204  and  _205
REMARK   83  A    between atoms: _210  and  _212
REMARK   84  A    between atoms: _212  and  _213
REMARK   85  A    between atoms: _212  and  _215
REMARK   86  A    between atoms: _215  and  _216
REMARK   87  A    between atoms: _219  and  _221
REMARK   88  A    between atoms: _221  and  _222
REMARK   89  A    between atoms: _221  and  _224
REMARK   90  A    between atoms: _224  and  _225
REMARK   91  A    between atoms: _228  and  _230
REMARK   92  A    between atoms: _230  and  _231
REMARK   93  A    between atoms: _233  and  _235
REMARK   94  A    between atoms: _235  and  _236
REMARK   95  A    between atoms: _235  and  _238
REMARK   96  A    between atoms: _238  and  _239
REMARK   97  A    between atoms: _239  and  _240
REMARK   98  A    between atoms: _240  and  _241
REMARK   99  A    between atoms: _250  and  _252
REMARK  100  A    between atoms: _252  and  _253
REMARK  101  A    between atoms: _252  and  _255
REMARK  102  A    between atoms: _255  and  _256
REMARK  103  A    between atoms: _256  and  _257
REMARK  104  A    between atoms: _257  and  _258
REMARK  105  A    between atoms: _267  and  _269
REMARK  106  A    between atoms: _269  and  _270
REMARK  107  A    between atoms: _269  and  _272
REMARK  108  A    between atoms: _272  and  _273
REMARK  109  A    between atoms: _276  and  _278
REMARK  110  A    between atoms: _278  and  _279
REMARK  111  A    between atoms: _278  and  _281
REMARK  112  A    between atoms: _281  and  _282
REMARK  113  A    between atoms: _285  and  _287
REMARK  114  A    between atoms: _287  and  _288
REMARK  115  A    between atoms: _287  and  _290
REMARK  116  A    between atoms: _290  and  _291
REMARK  117  A    between atoms: _294  and  _296
REMARK  118  A    between atoms: _296  and  _297
REMARK  119  A    between atoms: _296  and  _299
REMARK  120  A    between atoms: _299  and  _300
REMARK  121  A    between atoms: _303  and  _305
REMARK  122  A    between atoms: _305  and  _306
REMARK  123  A    between atoms: _308  and  _310
REMARK  124  A    between atoms: _310  and  _311
REMARK  125  A    between atoms: _314  and  _316
REMARK  126  A    between atoms: _316  and  _317
REMARK  127  A    between atoms: _316  and  _319
REMARK  128  A    between atoms: _319  and  _320
REMARK  129  A    between atoms: _323  and  _325
REMARK  130  A    between atoms: _325  and  _326
REMARK  131  A    between atoms: _325  and  _328
REMARK  132  A    between atoms: _328  and  _329
REMARK  133  A    between atoms: _332  and  _334
REMARK  134  A    between atoms: _334  and  _335
REMARK  135  A    between atoms: _334  and  _337
REMARK  136  A    between atoms: _337  and  _338
REMARK  137  A    between atoms: _341  and  _343
REMARK  138  A    between atoms: _343  and  _344
REMARK  139  A    between atoms: _343  and  _346
REMARK  140  A    between atoms: _349  and  _351
REMARK  141  A    between atoms: _351  and  _352
REMARK  142  A    between atoms: _351  and  _354
REMARK  143  A    between atoms: _354  and  _355
REMARK  144  A    between atoms: _355  and  _356
REMARK  145  A    between atoms: _356  and  _357
REMARK  146  A    between atoms: _357  and  _358
REMARK  147  A    between atoms: _362  and  _364
REMARK  148  A    between atoms: _364  and  _365
REMARK  149  A    between atoms: _364  and  _367
REMARK  150  A    between atoms: _367  and  _368
REMARK  151  A    between atoms: _368  and  _369
REMARK  152  A    between atoms: _371  and  _373
REMARK  153  A    between atoms: _373  and  _374
REMARK  154  A    between atoms: _373  and  _376
REMARK  155  A    between atoms: _376  and  _377
REMARK  156  A    between atoms: _380  and  _382
REMARK  157  A    between atoms: _382  and  _383
REMARK  158  A    between atoms: _385  and  _387
REMARK  159  A    between atoms: _387  and  _388
REMARK  160  A    between atoms: _390  and  _392
REMARK  161  A    between atoms: _392  and  _393
REMARK  162  A    between atoms: _392  and  _395
REMARK  163  A    between atoms: _395  and  _396
REMARK  164  A    between atoms: _399  and  _401
REMARK  165  A    between atoms: _401  and  _402
REMARK  166  A    between atoms: _404  and  _406
REMARK  167  A    between atoms: _406  and  _407
REMARK  168  A    between atoms: _409  and  _411
REMARK  169  A    between atoms: _411  and  _412
REMARK  170  A    between atoms: _411  and  _414
REMARK  171  A    between atoms: _414  and  _415
REMARK  172  A    between atoms: _418  and  _420
REMARK  173  A    between atoms: _420  and  _421
REMARK  174  A    between atoms: _420  and  _423
REMARK  175  A    between atoms: _426  and  _428
REMARK  176  A    between atoms: _428  and  _429
REMARK  177  A    between atoms: _428  and  _431
REMARK  178  A    between atoms: _431  and  _432
REMARK  179  A    between atoms: _435  and  _437
REMARK  180  A    between atoms: _437  and  _438
REMARK  181  A    between atoms: _437  and  _440
REMARK  182  A    between atoms: _440  and  _441
REMARK  183  A    between atoms: _445  and  _446
REMARK  184  A    between atoms: _451  and  _453
REMARK  185  A    between atoms: _453  and  _454
REMARK  186  A    between atoms: _453  and  _456
REMARK  187  A    between atoms: _459  and  _461
REMARK  188  A    between atoms: _461  and  _462
REMARK  189  A    between atoms: _461  and  _464
REMARK  190  A    between atoms: _464  and  _465
REMARK  191  A    between atoms: _470  and  _472
REMARK  192  A    between atoms: _472  and  _473
REMARK  193  A    between atoms: _472  and  _475
REMARK  194  A    between atoms: _475  and  _476
REMARK  195  A    between atoms: _479  and  _481
REMARK  196  A    between atoms: _481  and  _482
REMARK  197  A    between atoms: _481  and  _484
REMARK  198  A    between atoms: _484  and  _485
REMARK  199  A    between atoms: _488  and  _490
REMARK  200  A    between atoms: _490  and  _491
REMARK  201  A    between atoms: _493  and  _495
REMARK  202  A    between atoms: _495  and  _496
REMARK  203  A    between atoms: _495  and  _498
REMARK  204  A    between atoms: _498  and  _499
REMARK  205  A    between atoms: _499  and  _500
REMARK  206  A    between atoms: _500  and  _501
REMARK  207  A    between atoms: _510  and  _512
REMARK  208  A    between atoms: _512  and  _513
REMARK  209  A    between atoms: _512  and  _515
REMARK  210  A    between atoms: _515  and  _516
REMARK                            x       y       z     vdW  Elec       q    Type
REMARK                         _______ _______ _______ _____ _____    ______ ____
ROOT
ATOM      1  CA  ILE A   1      12.149  -9.534   8.295  0.00  0.00    +0.133 C 
ENDROOT
BRANCH   1   2
ATOM      2  N   ILE A   1      10.839  -9.857   8.890  0.00  0.00    -0.239 NA
ATOM      3  H   ILE A   1      10.714  -9.756   9.917  0.00  0.00    +0.142 HD
ENDBRANCH   1   2
BRANCH   1   4
ATOM      4  C   ILE A   1      13.196 -10.268   9.129  0.00  0.00    +0.224 C 
ATOM      5  O   ILE A   1      12.981 -10.532  10.334  0.00  0.00    -0.287 OA
ENDBRANCH   1   4
BRANCH   1   6
ATOM      6  CB  ILE A   1      12.483  -8.035   8.269  0.00  0.00    +0.023 C 
ATOM      7  CG2 ILE A   1      11.537  -7.301   7.328  0.00  0.00    +0.002 C 
BRANCH   6   8
ATOM      8  CG1 ILE A   1      12.465  -7.448   9.674  0.00  0.00    +0.002 C 
ATOM      9  CD1 ILE A   1      13.246  -6.144   9.789  0.00  0.00    +0.000 C 
ENDBRANCH   6   8
ENDBRANCH   1   6
TORSDOF 4
REMARK  Name = ../refined-set-2016/1d4l/1d4l_pocket.pdb
REMARK  210 active torsions:
REMARK  status: ('A' for Active; 'I' for Inactive)
REMARK    1  A    between atoms: _1  and  _3
REMARK    2  A    between atoms: _3  and  _4
REMARK    3  A    between atoms: _3  and  _6
REMARK    4  A    between atoms: _6  and  _7
REMARK    5  A    between atoms: _7  and  _8
REMARK    6  A    between atoms: _8  and  _9
REMARK    7  A    between atoms: _18  and  _20
REMARK    8  A    between atoms: _20  and  _21
REMARK    9  A    between atoms: _20  and  _23
REMARK   10  A    between atoms: _23  and  _24
REMARK   11  A    between atoms: _27  and  _29
REMARK   12  A    between atoms: _29  and  _30
REMARK   13  A    between atoms: _29  and  _32
REMARK   14  A    between atoms: _32  and  _33
REMARK   15  A    between atoms: _36  and  _38
REMARK   16  A    between atoms: _38  and  _39
REMARK   17  A    between atoms: _38  and  _41
REMARK   18  A    between atoms: _41  and  _42
REMARK   19  A    between atoms: _45  and  _47
REMARK   20  A    between atoms: _47  and  _48
REMARK   21  A    between atoms: _47  and  _50
REMARK   22  A    between atoms: _50  and  _51
REMARK   23  A    between atoms: _54  and  _56
REMARK   24  A    between atoms: _56  and  _57
REMARK   25  A    between atoms: _59  and  _61
REMARK   26  A    between atoms: _61  and  _62
REMARK   27  A    between atoms: _65  and  _67
REMARK   28  A    between atoms: _67  and  _68
REMARK   29  A    between atoms: _67  and  _70
REMARK   30  A    between atoms: _70  and  _71
REMARK   31  A    between atoms: _74  and  _76
REMARK   32  A    between atoms: _76  and  _77
REMARK   33  A    between atoms: _76  and  _79
REMARK   34  A    between atoms: _79  and  _80
REMARK   35  A    between atoms: _83  and  _85
REMARK   36  A    between atoms: _85  and  _86
REMARK   37  A    between atoms: _85  and  _88
REMARK   38  A    between atoms: _88  and  _89
REMARK   39  A    between atoms: _92  and  _94
REMARK   40  A    between atoms: _94  and  _95
REMARK   41  A    between atoms: _94  and  _97
REMARK   42  A    between atoms: _100  and  _102
REMARK   43  A    between atoms: _102  and  _103
REMARK   44  A    between atoms: _102  and  _105
REMARK   45  A    between atoms: _105  and  _106
REMARK   46  A    between atoms: _109  and  _111
REMARK   47  A    between atoms: _111  and  _112
REMARK   48  A    between atoms: _114  and  _116
REMARK   49  A    between atoms: _116  and  _117
REMARK   50  A    between atoms: _119  and  _121
REMARK   51  A    between atoms: _121  and  _122
REMARK   52  A    between atoms: _121  and  _124
REMARK   53  A    between atoms: _124  and  _125
REMARK   54  A    between atoms: _128  and  _130
REMARK   55  A    between atoms: _130  and  _131
REMARK   56  A    between atoms: _133  and  _135
REMARK   57  A    between atoms: _135  and  _136
REMARK   58  A    between atoms: _138  and  _140
REMARK   59  A    between atoms: _140  and  _141
REMARK   60  A    between atoms: _140  and  _143
REMARK   61  A    between atoms: _143  and  _144
REMARK   62  A    between atoms: _150  and  _152
REMARK   63  A    between atoms: _152  and  _153
REMARK   64  A    between atoms: _152  and  _155
REMARK   65  A    between atoms: _155  and  _156
REMARK   66  A    between atoms: _159  and  _161
REMARK   67  A    between atoms: _161  and  _162
REMARK   68  A    between atoms: _161  and  _164
REMARK   69  A    between atoms: _164  and  _165
REMARK   70  A    between atoms: _169  and  _170
REMARK   71  A    between atoms: _175  and  _177
REMARK   72  A    between atoms: _177  and  _178
REMARK   73  A    between atoms: _177  and  _180
REMARK   74  A    between atoms: _180  and  _181
REMARK   75  A    between atoms: _185  and  _186
REMARK   76  A    between atoms: _191  and  _193
REMARK   77  A    between atoms: _193  and  _194
REMARK   78  A    between atoms: _193  and  _196
REMARK   79  A    between atoms: _199  and  _201
REMARK   80  A    between atoms: _201  and  _202
REMARK   81  A    between atoms: _201  and  _204
REMARK   82  A    between atoms: _204  and  _205
REMARK   83  A    between atoms: _210  and  _212
REMARK   84  A    between atoms: _212  and  _213
REMARK   85  A    between atoms: _212  and  _215
REMARK   86  A    between atoms: _215  and  _216
REMARK   87  A    between atoms: _219  and  _221
REMARK   88  A    between atoms: _221  and  _222
REMARK   89  A    between atoms: _221  and  _224
REMARK   90  A    between atoms: _224  and  _225
REMARK   91  A    between atoms: _228  and  _230
REMARK   92  A    between atoms: _230  and  _231
REMARK   93  A    between atoms: _233  and  _235
REMARK   94  A    between atoms: _235  and  _236
REMARK   95  A    between atoms: _235  and  _238
REMARK   96  A    between atoms: _238  and  _239
REMARK   97  A    between atoms: _239  and  _240
REMARK   98  A    between atoms: _240  and  _241
REMARK   99  A    between atoms: _250  and  _252
REMARK  100  A    between atoms: _252  and  _253
REMARK  101  A    between atoms: _252  and  _255
REMARK  102  A    between atoms: _255  and  _256
REMARK  103  A    between atoms: _256  and  _257
REMARK  104  A    between atoms: _257  and  _258
REMARK  105  A    between atoms: _267  and  _269
REMARK  106  A    between atoms: _269  and  _270
REMARK  107  A    between atoms: _269  and  _272
REMARK  108  A    between atoms: _272  and  _273
REMARK  109  A    between atoms: _276  and  _278
REMARK  110  A    between atoms: _278  and  _279
REMARK  111  A    between atoms: _278  and  _281
REMARK  112  A    between atoms: _281  and  _282
REMARK  113  A    between atoms: _285  and  _287
REMARK  114  A    between atoms: _287  and  _288
REMARK  115  A    between atoms: _287  and  _290
REMARK  116  A    between atoms: _290  and  _291
REMARK  117  A    between atoms: _294  and  _296
REMARK  118  A    between atoms: _296  and  _297
REMARK  119  A    between atoms: _296  and  _299
REMARK  120  A    between atoms: _299  and  _300
REMARK  121  A    between atoms: _303  and  _305
REMARK  122  A    between atoms: _305  and  _306
REMARK  123  A    between atoms: _308  and  _310
REMARK  124  A    between atoms: _310  and  _311
REMARK  125  A    between atoms: _314  and  _316
REMARK  126  A    between atoms: _316  and  _317
REMARK  127  A    between atoms: _316  and  _319
REMARK  128  A    between atoms: _319  and  _320
REMARK  129  A    between atoms: _323  and  _325
REMARK  130  A    between atoms: _325  and  _326
REMARK  131  A    between atoms: _325  and  _328
REMARK  132  A    between atoms: _328  and  _329
REMARK  133  A    between atoms: _332  and  _334
REMARK  134  A    between atoms: _334  and  _335
REMARK  135  A    between atoms: _334  and  _337
REMARK  136  A    between atoms: _337  and  _338
REMARK  137  A    between atoms: _341  and  _343
REMARK  138  A    between atoms: _343  and  _344
REMARK  139  A    between atoms: _343  and  _346
REMARK  140  A    between atoms: _349  and  _351
REMARK  141  A    between atoms: _351  and  _352
REMARK  142  A    between atoms: _351  and  _354
REMARK  143  A    between atoms: _354  and  _355
REMARK  144  A    between atoms: _355  and  _356
REMARK  145  A    between atoms: _356  and  _357
REMARK  146  A    between atoms: _357  and  _358
REMARK  147  A    between atoms: _362  and  _364
REMARK  148  A    between atoms: _364  and  _365
REMARK  149  A    between atoms: _364  and  _367
REMARK  150  A    between atoms: _367  and  _368
REMARK  151  A    between atoms: _368  and  _369
REMARK  152  A    between atoms: _371  and  _373
REMARK  153  A    between atoms: _373  and  _374
REMARK  154  A    between atoms: _373  and  _376
REMARK  155  A    between atoms: _376  and  _377
REMARK  156  A    between atoms: _380  and  _382
REMARK  157  A    between atoms: _382  and  _383
REMARK  158  A    between atoms: _385  and  _387
REMARK  159  A    between atoms: _387  and  _388
REMARK  160  A    between atoms: _390  and  _392
REMARK  161  A    between atoms: _392  and  _393
REMARK  162  A    between atoms: _392  and  _395
REMARK  163  A    between atoms: _395  and  _396
REMARK  164  A    between atoms: _399  and  _401
REMARK  165  A    between atoms: _401  and  _402
REMARK  166  A    between atoms: _404  and  _406
REMARK  167  A    between atoms: _406  and  _407
REMARK  168  A    between atoms: _409  and  _411
REMARK  169  A    between atoms: _411  and  _412
REMARK  170  A    between atoms: _411  and  _414
REMARK  171  A    between atoms: _414  and  _415
REMARK  172  A    between atoms: _418  and  _420
REMARK  173  A    between atoms: _420  and  _421
REMARK  174  A    between atoms: _420  and  _423
REMARK  175  A    between atoms: _426  and  _428
REMARK  176  A    between atoms: _428  and  _429
REMARK  177  A    between atoms: _428  and  _431
REMARK  178  A    between atoms: _431  and  _432
REMARK  179  A    between atoms: _435  and  _437
REMARK  180  A    between atoms: _437  and  _438
REMARK  181  A    between atoms: _437  and  _440
REMARK  182  A    between atoms: _440  and  _441
REMARK  183  A    between atoms: _445  and  _446
REMARK  184  A    between atoms: _451  and  _453
REMARK  185  A    between atoms: _453  and  _454
REMARK  186  A    between atoms: _453  and  _456
REMARK  187  A    between atoms: _459  and  _461
REMARK  188  A    between atoms: _461  and  _462
REMARK  189  A    between atoms: _461  and  _464
REMARK  190  A    between atoms: _464  and  _465
REMARK  191  A    between atoms: _470  and  _472
REMARK  192  A    between atoms: _472  and  _473
REMARK  193  A    between atoms: _472  and  _475
REMARK  194  A    between atoms: _475  and  _476
REMARK  195  A    between atoms: _479  and  _481
REMARK  196  A    between atoms: _481  and  _482
REMARK  197  A    between atoms: _481  and  _484
REMARK  198  A    between atoms: _484  and  _485
REMARK  199  A    between atoms: _488  and  _490
REMARK  200  A    between atoms: _490  and  _491
REMARK  201  A    between atoms: _493  and  _495
REMARK  202  A    between atoms: _495  and  _496
REMARK  203  A    between atoms: _495  and  _498
REMARK  204  A    between atoms: _498  and  _499
REMARK  205  A    between atoms: _499  and  _500
REMARK  206  A    between atoms: _500  and  _501
REMARK  207  A    between atoms: _510  and  _512
REMARK  208  A    between atoms: _512  and  _513
REMARK  209  A    between atoms: _512  and  _515
REMARK  210  A    between atoms: _515  and  _516
REMARK                            x       y       z     vdW  Elec       q    Type
REMARK                         _______ _______ _______ _____ _____    ______ ____
ROOT
ATOM      1  CA  VAL A   1      17.681  -9.555  11.657  0.00  0.00    +0.133 C 
ENDROOT
BRANCH   1   2
ATOM      2  CB  VAL A   1      16.948  -8.681  12.715  0.00  0.00    +0.023 C 
ATOM      3  CG2 VAL A   1      16.328  -9.567  13.802  0.00  0.00    +0.002 C 
ATOM      4  CG1 VAL A   1      15.871  -7.794  12.039  0.00  0.00    +0.002 C 
ENDBRANCH   1   2
BRANCH   1   5
ATOM      5  N   VAL A   1      16.755 -10.476  10.983  0.00  0.00    -0.239 NA
ATOM      6  H   VAL A   1      16.399 -11.302  11.505  0.00  0.00    +0.142 HD
ENDBRANCH   1   5
BRANCH   1   7
ATOM      7  C   VAL A   1      18.798 -10.318  12.362  0.00  0.00    +0.224 C 
ATOM      8  O   VAL A   1      18.759 -11.534  12.477  0.00  0.00    -0.287 OA
ENDBRANCH   1   7
TORSDOF 3
REMARK  Name = ../refined-set-2016/1d4l/1d4l_pocket.pdb
REMARK  210 active torsions:
REMARK  status: ('A' for Active; 'I' for Inactive)
REMARK    1  A    between atoms: _1  and  _3
REMARK    2  A    between atoms: _3  and  _4
REMARK    3  A    between atoms: _3  and  _6
REMARK    4  A    between atoms: _6  and  _7
REMARK    5  A    between atoms: _7  and  _8
REMARK    6  A    between atoms: _8  and  _9
REMARK    7  A    between atoms: _18  and  _20
REMARK    8  A    between atoms: _20  and  _21
REMARK    9  A    between atoms: _20  and  _23
REMARK   10  A    between atoms: _23  and  _24
REMARK   11  A    between atoms: _27  and  _29
REMARK   12  A    between atoms: _29  and  _30
REMARK   13  A    between atoms: _29  and  _32
REMARK   14  A    between atoms: _32  and  _33
REMARK   15  A    between atoms: _36  and  _38
REMARK   16  A    between atoms: _38  and  _39
REMARK   17  A    between atoms: _38  and  _41
REMARK   18  A    between atoms: _41  and  _42
REMARK   19  A    between atoms: _45  and  _47
REMARK   20  A    between atoms: _47  and  _48
REMARK   21  A    between atoms: _47  and  _50
REMARK   22  A    between atoms: _50  and  _51
REMARK   23  A    between atoms: _54  and  _56
REMARK   24  A    between atoms: _56  and  _57
REMARK   25  A    between atoms: _59  and  _61
REMARK   26  A    between atoms: _61  and  _62
REMARK   27  A    between atoms: _65  and  _67
REMARK   28  A    between atoms: _67  and  _68
REMARK   29  A    between atoms: _67  and  _70
REMARK   30  A    between atoms: _70  and  _71
REMARK   31  A    between atoms: _74  and  _76
REMARK   32  A    between atoms: _76  and  _77
REMARK   33  A    between atoms: _76  and  _79
REMARK   34  A    between atoms: _79  and  _80
REMARK   35  A    between atoms: _83  and  _85
REMARK   36  A    between atoms: _85  and  _86
REMARK   37  A    between atoms: _85  and  _88
REMARK   38  A    between atoms: _88  and  _89
REMARK   39  A    between atoms: _92  and  _94
REMARK   40  A    between atoms: _94  and  _95
REMARK   41  A    between atoms: _94  and  _97
REMARK   42  A    between atoms: _100  and  _102
REMARK   43  A    between atoms: _102  and  _103
REMARK   44  A    between atoms: _102  and  _105
REMARK   45  A    between atoms: _105  and  _106
REMARK   46  A    between atoms: _109  and  _111
REMARK   47  A    between atoms: _111  and  _112
REMARK   48  A    between atoms: _114  and  _116
REMARK   49  A    between atoms: _116  and  _117
REMARK   50  A    between atoms: _119  and  _121
REMARK   51  A    between atoms: _121  and  _122
REMARK   52  A    between atoms: _121  and  _124
REMARK   53  A    between atoms: _124  and  _125
REMARK   54  A    between atoms: _128  and  _130
REMARK   55  A    between atoms: _130  and  _131
REMARK   56  A    between atoms: _133  and  _135
REMARK   57  A    between atoms: _135  and  _136
REMARK   58  A    between atoms: _138  and  _140
REMARK   59  A    between atoms: _140  and  _141
REMARK   60  A    between atoms: _140  and  _143
REMARK   61  A    between atoms: _143  and  _144
REMARK   62  A    between atoms: _150  and  _152
REMARK   63  A    between atoms: _152  and  _153
REMARK   64  A    between atoms: _152  and  _155
REMARK   65  A    between atoms: _155  and  _156
REMARK   66  A    between atoms: _159  and  _161
REMARK   67  A    between atoms: _161  and  _162
REMARK   68  A    between atoms: _161  and  _164
REMARK   69  A    between atoms: _164  and  _165
REMARK   70  A    between atoms: _169  and  _170
REMARK   71  A    between atoms: _175  and  _177
REMARK   72  A    between atoms: _177  and  _178
REMARK   73  A    between atoms: _177  and  _180
REMARK   74  A    between atoms: _180  and  _181
REMARK   75  A    between atoms: _185  and  _186
REMARK   76  A    between atoms: _191  and  _193
REMARK   77  A    between atoms: _193  and  _194
REMARK   78  A    between atoms: _193  and  _196
REMARK   79  A    between atoms: _199  and  _201
REMARK   80  A    between atoms: _201  and  _202
REMARK   81  A    between atoms: _201  and  _204
REMARK   82  A    between atoms: _204  and  _205
REMARK   83  A    between atoms: _210  and  _212
REMARK   84  A    between atoms: _212  and  _213
REMARK   85  A    between atoms: _212  and  _215
REMARK   86  A    between atoms: _215  and  _216
REMARK   87  A    between atoms: _219  and  _221
REMARK   88  A    between atoms: _221  and  _222
REMARK   89  A    between atoms: _221  and  _224
REMARK   90  A    between atoms: _224  and  _225
REMARK   91  A    between atoms: _228  and  _230
REMARK   92  A    between atoms: _230  and  _231
REMARK   93  A    between atoms: _233  and  _235
REMARK   94  A    between atoms: _235  and  _236
REMARK   95  A    between atoms: _235  and  _238
REMARK   96  A    between atoms: _238  and  _239
REMARK   97  A    between atoms: _239  and  _240
REMARK   98  A    between atoms: _240  and  _241
REMARK   99  A    between atoms: _250  and  _252
REMARK  100  A    between atoms: _252  and  _253
REMARK  101  A    between atoms: _252  and  _255
REMARK  102  A    between atoms: _255  and  _256
REMARK  103  A    between atoms: _256  and  _257
REMARK  104  A    between atoms: _257  and  _258
REMARK  105  A    between atoms: _267  and  _269
REMARK  106  A    between atoms: _269  and  _270
REMARK  107  A    between atoms: _269  and  _272
REMARK  108  A    between atoms: _272  and  _273
REMARK  109  A    between atoms: _276  and  _278
REMARK  110  A    between atoms: _278  and  _279
REMARK  111  A    between atoms: _278  and  _281
REMARK  112  A    between atoms: _281  and  _282
REMARK  113  A    between atoms: _285  and  _287
REMARK  114  A    between atoms: _287  and  _288
REMARK  115  A    between atoms: _287  and  _290
REMARK  116  A    between atoms: _290  and  _291
REMARK  117  A    between atoms: _294  and  _296
REMARK  118  A    between atoms: _296  and  _297
REMARK  119  A    between atoms: _296  and  _299
REMARK  120  A    between atoms: _299  and  _300
REMARK  121  A    between atoms: _303  and  _305
REMARK  122  A    between atoms: _305  and  _306
REMARK  123  A    between atoms: _308  and  _310
REMARK  124  A    between atoms: _310  and  _311
REMARK  125  A    between atoms: _314  and  _316
REMARK  126  A    between atoms: _316  and  _317
REMARK  127  A    between atoms: _316  and  _319
REMARK  128  A    between atoms: _319  and  _320
REMARK  129  A    between atoms: _323  and  _325
REMARK  130  A    between atoms: _325  and  _326
REMARK  131  A    between atoms: _325  and  _328
REMARK  132  A    between atoms: _328  and  _329
REMARK  133  A    between atoms: _332  and  _334
REMARK  134  A    between atoms: _334  and  _335
REMARK  135  A    between atoms: _334  and  _337
REMARK  136  A    between atoms: _337  and  _338
REMARK  137  A    between atoms: _341  and  _343
REMARK  138  A    between atoms: _343  and  _344
REMARK  139  A    between atoms: _343  and  _346
REMARK  140  A    between atoms: _349  and  _351
REMARK  141  A    between atoms: _351  and  _352
REMARK  142  A    between atoms: _351  and  _354
REMARK  143  A    between atoms: _354  and  _355
REMARK  144  A    between atoms: _355  and  _356
REMARK  145  A    between atoms: _356  and  _357
REMARK  146  A    between atoms: _357  and  _358
REMARK  147  A    between atoms: _362  and  _364
REMARK  148  A    between atoms: _364  and  _365
REMARK  149  A    between atoms: _364  and  _367
REMARK  150  A    between atoms: _367  and  _368
REMARK  151  A    between atoms: _368  and  _369
REMARK  152  A    between atoms: _371  and  _373
REMARK  153  A    between atoms: _373  and  _374
REMARK  154  A    between atoms: _373  and  _376
REMARK  155  A    between atoms: _376  and  _377
REMARK  156  A    between atoms: _380  and  _382
REMARK  157  A    between atoms: _382  and  _383
REMARK  158  A    between atoms: _385  and  _387
REMARK  159  A    between atoms: _387  and  _388
REMARK  160  A    between atoms: _390  and  _392
REMARK  161  A    between atoms: _392  and  _393
REMARK  162  A    between atoms: _392  and  _395
REMARK  163  A    between atoms: _395  and  _396
REMARK  164  A    between atoms: _399  and  _401
REMARK  165  A    between atoms: _401  and  _402
REMARK  166  A    between atoms: _404  and  _406
REMARK  167  A    between atoms: _406  and  _407
REMARK  168  A    between atoms: _409  and  _411
REMARK  169  A    between atoms: _411  and  _412
REMARK  170  A    between atoms: _411  and  _414
REMARK  171  A    between atoms: _414  and  _415
REMARK  172  A    between atoms: _418  and  _420
REMARK  173  A    between atoms: _420  and  _421
REMARK  174  A    between atoms: _420  and  _423
REMARK  175  A    between atoms: _426  and  _428
REMARK  176  A    between atoms: _428  and  _429
REMARK  177  A    between atoms: _428  and  _431
REMARK  178  A    between atoms: _431  and  _432
REMARK  179  A    between atoms: _435  and  _437
REMARK  180  A    between atoms: _437  and  _438
REMARK  181  A    between atoms: _437  and  _440
REMARK  182  A    between atoms: _440  and  _441
REMARK  183  A    between atoms: _445  and  _446
REMARK  184  A    between atoms: _451  and  _453
REMARK  185  A    between atoms: _453  and  _454
REMARK  186  A    between atoms: _453  and  _456
REMARK  187  A    between atoms: _459  and  _461
REMARK  188  A    between atoms: _461  and  _462
REMARK  189  A    between atoms: _461  and  _464
REMARK  190  A    between atoms: _464  and  _465
REMARK  191  A    between atoms: _470  and  _472
REMARK  192  A    between atoms: _472  and  _473
REMARK  193  A    between atoms: _472  and  _475
REMARK  194  A    between atoms: _475  and  _476
REMARK  195  A    between atoms: _479  and  _481
REMARK  196  A    between atoms: _481  and  _482
REMARK  197  A    between atoms: _481  and  _484
REMARK  198  A    between atoms: _484  and  _485
REMARK  199  A    between atoms: _488  and  _490
REMARK  200  A    between atoms: _490  and  _491
REMARK  201  A    between atoms: _493  and  _495
REMARK  202  A    between atoms: _495  and  _496
REMARK  203  A    between atoms: _495  and  _498
REMARK  204  A    between atoms: _498  and  _499
REMARK  205  A    between atoms: _499  and  _500
REMARK  206  A    between atoms: _500  and  _501
REMARK  207  A    between atoms: _510  and  _512
REMARK  208  A    between atoms: _512  and  _513
REMARK  209  A    between atoms: _512  and  _515
REMARK  210  A    between atoms: _515  and  _516
REMARK                            x       y       z     vdW  Elec       q    Type
REMARK                         _______ _______ _______ _____ _____    ______ ____
ROOT
ATOM      1  CA  LEU A   1      18.503  -6.271  16.448  0.00  0.00    +0.133 C 
ENDROOT
BRANCH   1   2
ATOM      2  N   LEU A   1      18.708  -5.493  17.675  0.00  0.00    -0.239 NA
ATOM      3  H   LEU A   1      17.977  -4.818  17.977  0.00  0.00    +0.142 HD
ENDBRANCH   1   2
BRANCH   1   4
ATOM      4  C   LEU A   1      18.888  -5.369  15.277  0.00  0.00    +0.224 C 
ATOM      5  O   LEU A   1      18.517  -4.193  15.245  0.00  0.00    -0.287 OA
ENDBRANCH   1   4
BRANCH   1   6
ATOM      6  CB  LEU A   1      17.045  -6.714  16.317  0.00  0.00    +0.025 C 
BRANCH   6   7
ATOM      7  CG  LEU A   1      16.387  -7.351  17.545  0.00  0.00    +0.002 C 
ATOM      8  CD2 LEU A   1      17.162  -8.578  17.991  0.00  0.00    +0.000 C 
ATOM      9  CD1 LEU A   1      14.958  -7.697  17.236  0.00  0.00    +0.000 C 
ENDBRANCH   6   7
ENDBRANCH   1   6
TORSDOF 4
REMARK  Name = ../refined-set-2016/1d4l/1d4l_pocket.pdb
REMARK  210 active torsions:
REMARK  status: ('A' for Active; 'I' for Inactive)
REMARK    1  A    between atoms: _1  and  _3
REMARK    2  A    between atoms: _3  and  _4
REMARK    3  A    between atoms: _3  and  _6
REMARK    4  A    between atoms: _6  and  _7
REMARK    5  A    between atoms: _7  and  _8
REMARK    6  A    between atoms: _8  and  _9
REMARK    7  A    between atoms: _18  and  _20
REMARK    8  A    between atoms: _20  and  _21
REMARK    9  A    between atoms: _20  and  _23
REMARK   10  A    between atoms: _23  and  _24
REMARK   11  A    between atoms: _27  and  _29
REMARK   12  A    between atoms: _29  and  _30
REMARK   13  A    between atoms: _29  and  _32
REMARK   14  A    between atoms: _32  and  _33
REMARK   15  A    between atoms: _36  and  _38
REMARK   16  A    between atoms: _38  and  _39
REMARK   17  A    between atoms: _38  and  _41
REMARK   18  A    between atoms: _41  and  _42
REMARK   19  A    between atoms: _45  and  _47
REMARK   20  A    between atoms: _47  and  _48
REMARK   21  A    between atoms: _47  and  _50
REMARK   22  A    between atoms: _50  and  _51
REMARK   23  A    between atoms: _54  and  _56
REMARK   24  A    between atoms: _56  and  _57
REMARK   25  A    between atoms: _59  and  _61
REMARK   26  A    between atoms: _61  and  _62
REMARK   27  A    between atoms: _65  and  _67
REMARK   28  A    between atoms: _67  and  _68
REMARK   29  A    between atoms: _67  and  _70
REMARK   30  A    between atoms: _70  and  _71
REMARK   31  A    between atoms: _74  and  _76
REMARK   32  A    between atoms: _76  and  _77
REMARK   33  A    between atoms: _76  and  _79
REMARK   34  A    between atoms: _79  and  _80
REMARK   35  A    between atoms: _83  and  _85
REMARK   36  A    between atoms: _85  and  _86
REMARK   37  A    between atoms: _85  and  _88
REMARK   38  A    between atoms: _88  and  _89
REMARK   39  A    between atoms: _92  and  _94
REMARK   40  A    between atoms: _94  and  _95
REMARK   41  A    between atoms: _94  and  _97
REMARK   42  A    between atoms: _100  and  _102
REMARK   43  A    between atoms: _102  and  _103
REMARK   44  A    between atoms: _102  and  _105
REMARK   45  A    between atoms: _105  and  _106
REMARK   46  A    between atoms: _109  and  _111
REMARK   47  A    between atoms: _111  and  _112
REMARK   48  A    between atoms: _114  and  _116
REMARK   49  A    between atoms: _116  and  _117
REMARK   50  A    between atoms: _119  and  _121
REMARK   51  A    between atoms: _121  and  _122
REMARK   52  A    between atoms: _121  and  _124
REMARK   53  A    between atoms: _124  and  _125
REMARK   54  A    between atoms: _128  and  _130
REMARK   55  A    between atoms: _130  and  _131
REMARK   56  A    between atoms: _133  and  _135
REMARK   57  A    between atoms: _135  and  _136
REMARK   58  A    between atoms: _138  and  _140
REMARK   59  A    between atoms: _140  and  _141
REMARK   60  A    between atoms: _140  and  _143
REMARK   61  A    between atoms: _143  and  _144
REMARK   62  A    between atoms: _150  and  _152
REMARK   63  A    between atoms: _152  and  _153
REMARK   64  A    between atoms: _152  and  _155
REMARK   65  A    between atoms: _155  and  _156
REMARK   66  A    between atoms: _159  and  _161
REMARK   67  A    between atoms: _161  and  _162
REMARK   68  A    between atoms: _161  and  _164
REMARK   69  A    between atoms: _164  and  _165
REMARK   70  A    between atoms: _169  and  _170
REMARK   71  A    between atoms: _175  and  _177
REMARK   72  A    between atoms: _177  and  _178
REMARK   73  A    between atoms: _177  and  _180
REMARK   74  A    between atoms: _180  and  _181
REMARK   75  A    between atoms: _185  and  _186
REMARK   76  A    between atoms: _191  and  _193
REMARK   77  A    between atoms: _193  and  _194
REMARK   78  A    between atoms: _193  and  _196
REMARK   79  A    between atoms: _199  and  _201
REMARK   80  A    between atoms: _201  and  _202
REMARK   81  A    between atoms: _201  and  _204
REMARK   82  A    between atoms: _204  and  _205
REMARK   83  A    between atoms: _210  and  _212
REMARK   84  A    between atoms: _212  and  _213
REMARK   85  A    between atoms: _212  and  _215
REMARK   86  A    between atoms: _215  and  _216
REMARK   87  A    between atoms: _219  and  _221
REMARK   88  A    between atoms: _221  and  _222
REMARK   89  A    between atoms: _221  and  _224
REMARK   90  A    between atoms: _224  and  _225
REMARK   91  A    between atoms: _228  and  _230
REMARK   92  A    between atoms: _230  and  _231
REMARK   93  A    between atoms: _233  and  _235
REMARK   94  A    between atoms: _235  and  _236
REMARK   95  A    between atoms: _235  and  _238
REMARK   96  A    between atoms: _238  and  _239
REMARK   97  A    between atoms: _239  and  _240
REMARK   98  A    between atoms: _240  and  _241
REMARK   99  A    between atoms: _250  and  _252
REMARK  100  A    between atoms: _252  and  _253
REMARK  101  A    between atoms: _252  and  _255
REMARK  102  A    between atoms: _255  and  _256
REMARK  103  A    between atoms: _256  and  _257
REMARK  104  A    between atoms: _257  and  _258
REMARK  105  A    between atoms: _267  and  _269
REMARK  106  A    between atoms: _269  and  _270
REMARK  107  A    between atoms: _269  and  _272
REMARK  108  A    between atoms: _272  and  _273
REMARK  109  A    between atoms: _276  and  _278
REMARK  110  A    between atoms: _278  and  _279
REMARK  111  A    between atoms: _278  and  _281
REMARK  112  A    between atoms: _281  and  _282
REMARK  113  A    between atoms: _285  and  _287
REMARK  114  A    between atoms: _287  and  _288
REMARK  115  A    between atoms: _287  and  _290
REMARK  116  A    between atoms: _290  and  _291
REMARK  117  A    between atoms: _294  and  _296
REMARK  118  A    between atoms: _296  and  _297
REMARK  119  A    between atoms: _296  and  _299
REMARK  120  A    between atoms: _299  and  _300
REMARK  121  A    between atoms: _303  and  _305
REMARK  122  A    between atoms: _305  and  _306
REMARK  123  A    between atoms: _308  and  _310
REMARK  124  A    between atoms: _310  and  _311
REMARK  125  A    between atoms: _314  and  _316
REMARK  126  A    between atoms: _316  and  _317
REMARK  127  A    between atoms: _316  and  _319
REMARK  128  A    between atoms: _319  and  _320
REMARK  129  A    between atoms: _323  and  _325
REMARK  130  A    between atoms: _325  and  _326
REMARK  131  A    between atoms: _325  and  _328
REMARK  132  A    between atoms: _328  and  _329
REMARK  133  A    between atoms: _332  and  _334
REMARK  134  A    between atoms: _334  and  _335
REMARK  135  A    between atoms: _334  and  _337
REMARK  136  A    between atoms: _337  and  _338
REMARK  137  A    between atoms: _341  and  _343
REMARK  138  A    between atoms: _343  and  _344
REMARK  139  A    between atoms: _343  and  _346
REMARK  140  A    between atoms: _349  and  _351
REMARK  141  A    between atoms: _351  and  _352
REMARK  142  A    between atoms: _351  and  _354
REMARK  143  A    between atoms: _354  and  _355
REMARK  144  A    between atoms: _355  and  _356
REMARK  145  A    between atoms: _356  and  _357
REMARK  146  A    between atoms: _357  and  _358
REMARK  147  A    between atoms: _362  and  _364
REMARK  148  A    between atoms: _364  and  _365
REMARK  149  A    between atoms: _364  and  _367
REMARK  150  A    between atoms: _367  and  _368
REMARK  151  A    between atoms: _368  and  _369
REMARK  152  A    between atoms: _371  and  _373
REMARK  153  A    between atoms: _373  and  _374
REMARK  154  A    between atoms: _373  and  _376
REMARK  155  A    between atoms: _376  and  _377
REMARK  156  A    between atoms: _380  and  _382
REMARK  157  A    between atoms: _382  and  _383
REMARK  158  A    between atoms: _385  and  _387
REMARK  159  A    between atoms: _387  and  _388
REMARK  160  A    between atoms: _390  and  _392
REMARK  161  A    between atoms: _392  and  _393
REMARK  162  A    between atoms: _392  and  _395
REMARK  163  A    between atoms: _395  and  _396
REMARK  164  A    between atoms: _399  and  _401
REMARK  165  A    between atoms: _401  and  _402
REMARK  166  A    between atoms: _404  and  _406
REMARK  167  A    between atoms: _406  and  _407
REMARK  168  A    between atoms: _409  and  _411
REMARK  169  A    between atoms: _411  and  _412
REMARK  170  A    between atoms: _411  and  _414
REMARK  171  A    between atoms: _414  and  _415
REMARK  172  A    between atoms: _418  and  _420
REMARK  173  A    between atoms: _420  and  _421
REMARK  174  A    between atoms: _420  and  _423
REMARK  175  A    between atoms: _426  and  _428
REMARK  176  A    between atoms: _428  and  _429
REMARK  177  A    between atoms: _428  and  _431
REMARK  178  A    between atoms: _431  and  _432
REMARK  179  A    between atoms: _435  and  _437
REMARK  180  A    between atoms: _437  and  _438
REMARK  181  A    between atoms: _437  and  _440
REMARK  182  A    between atoms: _440  and  _441
REMARK  183  A    between atoms: _445  and  _446
REMARK  184  A    between atoms: _451  and  _453
REMARK  185  A    between atoms: _453  and  _454
REMARK  186  A    between atoms: _453  and  _456
REMARK  187  A    between atoms: _459  and  _461
REMARK  188  A    between atoms: _461  and  _462
REMARK  189  A    between atoms: _461  and  _464
REMARK  190  A    between atoms: _464  and  _465
REMARK  191  A    between atoms: _470  and  _472
REMARK  192  A    between atoms: _472  and  _473
REMARK  193  A    between atoms: _472  and  _475
REMARK  194  A    between atoms: _475  and  _476
REMARK  195  A    between atoms: _479  and  _481
REMARK  196  A    between atoms: _481  and  _482
REMARK  197  A    between atoms: _481  and  _484
REMARK  198  A    between atoms: _484  and  _485
REMARK  199  A    between atoms: _488  and  _490
REMARK  200  A    between atoms: _490  and  _491
REMARK  201  A    between atoms: _493  and  _495
REMARK  202  A    between atoms: _495  and  _496
REMARK  203  A    between atoms: _495  and  _498
REMARK  204  A    between atoms: _498  and  _499
REMARK  205  A    between atoms: _499  and  _500
REMARK  206  A    between atoms: _500  and  _501
REMARK  207  A    between atoms: _510  and  _512
REMARK  208  A    between atoms: _512  and  _513
REMARK  209  A    between atoms: _512  and  _515
REMARK  210  A    between atoms: _515  and  _516
REMARK                            x       y       z     vdW  Elec       q    Type
REMARK                         _______ _______ _______ _____ _____    ______ ____
ROOT
ATOM      1  C   ILE A   5      14.032   1.471  18.086  0.00  0.00    +0.241 C 
ATOM      2  N   ILE A   6      13.739   2.306  19.084  0.00  0.00    -0.297 N 
ATOM      3  H   ILE A   6      13.204   3.176  18.888  0.00  0.00    +0.150 HD
ATOM      4  O   ILE A   5      14.722   0.461  18.240  0.00  0.00    -0.273 OA
ENDROOT
BRANCH   2   5
ATOM      5  CA  ILE A   6      14.166   2.007  20.458  0.00  0.00    +0.149 C 
BRANCH   5   6
ATOM      6  C   ILE A   6      12.951   1.357  21.085  0.00  0.00    +0.241 C 
ATOM      7  N   GLY A   7      13.117   0.104  21.502  0.00  0.00    -0.295 N 
ATOM      8  H   GLY A   7      14.051  -0.345  21.416  0.00  0.00    +0.150 HD
ATOM      9  O   ILE A   6      11.880   1.971  21.156  0.00  0.00    -0.273 OA
BRANCH   7  10
ATOM     10  CA  GLY A   7      12.017  -0.643  22.074  0.00  0.00    +0.176 C 
BRANCH  10  11
ATOM     11  C   GLY A   7      11.966  -0.688  23.580  0.00  0.00    +0.243 C 
ATOM     12  O   GLY A   7      12.827  -0.123  24.258  0.00  0.00    -0.273 OA
ATOM     13  N   ARG A   8      10.949  -1.366  24.102  0.00  0.00    -0.297 N 
ATOM     14  H   ARG A   8      10.277  -1.832  23.459  0.00  0.00    +0.150 HD
BRANCH  13  15
ATOM     15  CA  ARG A   8      10.736  -1.484  25.553  0.00  0.00    +0.149 C 
BRANCH  15  16
ATOM     16  C   ARG A   8      11.926  -2.035  26.317  0.00  0.00    +0.241 C 
ATOM     17  O   ARG A   8      12.109  -1.698  27.487  0.00  0.00    -0.273 OA
ATOM     18  N   ASN A   9      12.731  -2.878  25.676  0.00  0.00    -0.298 N 
ATOM     19  H   ASN A   9      12.536  -3.124  24.684  0.00  0.00    +0.150 HD
BRANCH  18  20
ATOM     20  CA  ASN A   9      13.891  -3.464  26.356  0.00  0.00    +0.146 C 
BRANCH  20  21
ATOM     21  C   ASN A   9      14.891  -2.399  26.821  0.00  0.00    +0.227 C 
ATOM     22  O   ASN A   9      15.498  -2.541  27.874  0.00  0.00    -0.286 OA
ENDBRANCH  20  21
BRANCH  20  23
ATOM     23  CB  ASN A   9      14.546  -4.558  25.495  0.00  0.00    +0.112 C 
BRANCH  23  24
ATOM     24  CG  ASN A   9      15.390  -4.007  24.373  0.00  0.00    +0.222 C 
ATOM     25  ND2 ASN A   9      16.662  -4.371  24.376  0.00  0.00    -0.329 N 
ATOM     26 HD21 ASN A   9      17.024  -4.990  25.129  0.00  0.00    +0.145 HD
ATOM     27 HD22 ASN A   9      17.300  -4.038  23.625  0.00  0.00    +0.145 HD
ATOM     28  OD1 ASN A   9      14.914  -3.277  23.506  0.00  0.00    -0.275 OA
ENDBRANCH  23  24
ENDBRANCH  20  23
ENDBRANCH  18  20
ENDBRANCH  15  16
BRANCH  15  29
ATOM     29  CB  ARG A   8       9.492  -2.330  25.879  0.00  0.00    +0.033 C 
BRANCH  29  30
ATOM     30  CG  ARG A   8       8.151  -1.733  25.417  0.00  0.00    +0.045 C 
BRANCH  30  31
ATOM     31  CD  ARG A   8       6.953  -2.495  25.954  0.00  0.00    +0.174 C 
BRANCH  31  32
ATOM     32  NE  ARG A   8       6.901  -3.879  25.456  0.00  0.00    -0.265 N 
ATOM     33  CZ  ARG A   8       7.343  -4.936  26.132  0.00  0.00    +0.342 C 
ATOM     34  NH2 ARG A   8       7.863  -4.785  27.342  0.00  0.00    -0.292 N 
ATOM     35 HH21 ARG A   8       8.207  -5.614  27.867  0.00  0.00    +0.255 HD
ATOM     36 HH22 ARG A   8       7.927  -3.838  27.766  0.00  0.00    +0.255 HD
ATOM     37  NH1 ARG A   8       7.289  -6.144  25.591  0.00  0.00    -0.292 N 
ATOM     38 HH11 ARG A   8       7.636  -6.968  26.123  0.00  0.00    +0.255 HD
ATOM     39 HH12 ARG A   8       6.900  -6.269  24.635  0.00  0.00    +0.255 HD
ATOM     40  HE  ARG A   8       6.492  -4.041  24.514  0.00  0.00    +0.259 HD
ENDBRANCH  31  32
ENDBRANCH  30  31
ENDBRANCH  29  30
ENDBRANCH  15  29
ENDBRANCH  13  15
ENDBRANCH  10  11
ENDBRANCH   7  10
ENDBRANCH   5   6
BRANCH   5  41
ATOM     41  CB  ILE A   6      14.548   3.261  21.268  0.00  0.00    +0.027 C 
ATOM     42  CG2 ILE A   6      14.936   2.863  22.688  0.00  0.00    +0.002 C 
BRANCH  41  43
ATOM     43  CG1 ILE A   6      15.681   4.014  20.570  0.00  0.00    +0.002 C 
ATOM     44  CD1 ILE A   6      16.917   3.153  20.270  0.00  0.00    +0.000 C 
ENDBRANCH  41  43
ENDBRANCH   5  41
ENDBRANCH   2   5
BRANCH   1  45
ATOM     45  CA  ILE A   5      13.477   1.818  16.716  0.00  0.00    +0.149 C 
BRANCH  45  47
ATOM     46  C   ASN A   4      14.668   3.123  15.018  0.00  0.00    +0.241 C 
ATOM     47  N   ILE A   5      14.508   1.991  15.694  0.00  0.00    -0.297 N 
ATOM     48  H   ILE A   5      15.143   1.194  15.488  0.00  0.00    +0.150 HD
ATOM     49  O   ASN A   4      14.027   4.154  15.241  0.00  0.00    -0.273 OA
BRANCH  46  50
ATOM     50  CA  ASN A   4      15.750   3.095  13.950  0.00  0.00    +0.158 C 
BRANCH  50  52
ATOM     51  C   VAL A   3      14.335   2.917  11.963  0.00  0.00    +0.241 C 
ATOM     52  N   ASN A   4      15.150   3.646  12.717  0.00  0.00    -0.297 N 
ATOM     53  H   ASN A   4      15.370   4.622  12.434  0.00  0.00    +0.150 HD
ATOM     54  O   VAL A   3      14.110   1.725  12.191  0.00  0.00    -0.273 OA
BRANCH  51  55
ATOM     55  CA  VAL A   3      13.731   3.597  10.737  0.00  0.00    +0.149 C 
BRANCH  55  57
ATOM     56  C   PRO A   2      13.423   2.908   8.411  0.00  0.00    +0.241 C 
ATOM     57  N   VAL A   3      13.420   2.606   9.707  0.00  0.00    -0.297 N 
ATOM     58  H   VAL A   3      13.189   1.634   9.997  0.00  0.00    +0.150 HD
ATOM     59  O   PRO A   2      13.731   4.020   7.978  0.00  0.00    -0.273 OA
BRANCH  56  66
ATOM     60  C   THR A   1      14.306  -0.118   8.357  0.00  0.00    +0.244 C 
ATOM     61  O   THR A   1      15.375   0.432   8.092  0.00  0.00    -0.273 OA
ATOM     62  N   PRO A   2      13.125   0.456   8.073  0.00  0.00    -0.272 N 
ATOM     63  CD  PRO A   2      11.797  -0.168   8.216  0.00  0.00    +0.094 C 
ATOM     64  CG  PRO A   2      11.024   0.506   7.127  0.00  0.00    +0.024 C 
ATOM     65  CB  PRO A   2      11.506   1.900   7.172  0.00  0.00    +0.031 C 
ATOM     66  CA  PRO A   2      13.009   1.784   7.460  0.00  0.00    +0.152 C 
BRANCH  60  67
ATOM     67  CA  THR A   1      14.274  -1.511   8.999  0.00  0.00    +0.172 C 
BRANCH  67  68
ATOM     68  N   THR A   1      15.408  -2.308   8.487  0.00  0.00    -0.236 NA
ATOM     69  H   THR A   1      16.311  -2.287   9.002  0.00  0.00    +0.142 HD
ENDBRANCH  67  68
BRANCH  67  70
ATOM     70  CB  THR A   1      14.308  -1.359  10.548  0.00  0.00    +0.135 C 
ATOM     71  CG2 THR A   1      15.629  -0.750  11.012  0.00  0.00    +0.034 C 
BRANCH  70  72
ATOM     72  OG1 THR A   1      13.222  -0.518  10.972  0.00  0.00    -0.383 OA
ATOM     73  HG1 THR A   1      13.312   0.373  10.551  0.00  0.00    +0.210 HD
ENDBRANCH  70  72
ENDBRANCH  67  70
ENDBRANCH  60  67
ENDBRANCH  56  66
ENDBRANCH  55  57
BRANCH  55  74
ATOM     74  CB  VAL A   3      12.403   4.328  11.118  0.00  0.00    +0.027 C 
ATOM     75  CG2 VAL A   3      12.645   5.460  12.107  0.00  0.00    +0.002 C 
ATOM     76  CG1 VAL A   3      11.399   3.342  11.668  0.00  0.00    +0.002 C 
ENDBRANCH  55  74
ENDBRANCH  51  55
ENDBRANCH  50  52
BRANCH  50  77
ATOM     77  CB  ASN A   4      16.966   3.903  14.410  0.00  0.00    +0.114 C 
BRANCH  77  78
ATOM     78  CG  ASN A   4      18.111   3.806  13.454  0.00  0.00    +0.222 C 
ATOM     79  ND2 ASN A   4      18.668   4.956  13.075  0.00  0.00    -0.329 N 
ATOM     80 HD21 ASN A   4      18.319   5.856  13.462  0.00  0.00    +0.145 HD
ATOM     81 HD22 ASN A   4      19.452   4.954  12.392  0.00  0.00    +0.145 HD
ATOM     82  OD1 ASN A   4      18.485   2.709  13.027  0.00  0.00    -0.275 OA
ENDBRANCH  77  78
ENDBRANCH  50  77
ENDBRANCH  46  50
ENDBRANCH  45  47
BRANCH  45  83
ATOM     83  CB  ILE A   5      12.511   0.674  16.298  0.00  0.00    +0.027 C 
ATOM     84  CG2 ILE A   5      11.551   0.313  17.440  0.00  0.00    +0.002 C 
BRANCH  83  85
ATOM     85  CG1 ILE A   5      11.724   1.074  15.054  0.00  0.00    +0.002 C 
ATOM     86  CD1 ILE A   5      10.857  -0.043  14.477  0.00  0.00    +0.000 C 
ENDBRANCH  83  85
ENDBRANCH  45  83
ENDBRANCH   1  45
TORSDOF 32
REMARK  Name = ../refined-set-2016/1d4l/1d4l_pocket.pdb
REMARK  210 active torsions:
REMARK  status: ('A' for Active; 'I' for Inactive)
REMARK    1  A    between atoms: _1  and  _3
REMARK    2  A    between atoms: _3  and  _4
REMARK    3  A    between atoms: _3  and  _6
REMARK    4  A    between atoms: _6  and  _7
REMARK    5  A    between atoms: _7  and  _8
REMARK    6  A    between atoms: _8  and  _9
REMARK    7  A    between atoms: _18  and  _20
REMARK    8  A    between atoms: _20  and  _21
REMARK    9  A    between atoms: _20  and  _23
REMARK   10  A    between atoms: _23  and  _24
REMARK   11  A    between atoms: _27  and  _29
REMARK   12  A    between atoms: _29  and  _30
REMARK   13  A    between atoms: _29  and  _32
REMARK   14  A    between atoms: _32  and  _33
REMARK   15  A    between atoms: _36  and  _38
REMARK   16  A    between atoms: _38  and  _39
REMARK   17  A    between atoms: _38  and  _41
REMARK   18  A    between atoms: _41  and  _42
REMARK   19  A    between atoms: _45  and  _47
REMARK   20  A    between atoms: _47  and  _48
REMARK   21  A    between atoms: _47  and  _50
REMARK   22  A    between atoms: _50  and  _51
REMARK   23  A    between atoms: _54  and  _56
REMARK   24  A    between atoms: _56  and  _57
REMARK   25  A    between atoms: _59  and  _61
REMARK   26  A    between atoms: _61  and  _62
REMARK   27  A    between atoms: _65  and  _67
REMARK   28  A    between atoms: _67  and  _68
REMARK   29  A    between atoms: _67  and  _70
REMARK   30  A    between atoms: _70  and  _71
REMARK   31  A    between atoms: _74  and  _76
REMARK   32  A    between atoms: _76  and  _77
REMARK   33  A    between atoms: _76  and  _79
REMARK   34  A    between atoms: _79  and  _80
REMARK   35  A    between atoms: _83  and  _85
REMARK   36  A    between atoms: _85  and  _86
REMARK   37  A    between atoms: _85  and  _88
REMARK   38  A    between atoms: _88  and  _89
REMARK   39  A    between atoms: _92  and  _94
REMARK   40  A    between atoms: _94  and  _95
REMARK   41  A    between atoms: _94  and  _97
REMARK   42  A    between atoms: _100  and  _102
REMARK   43  A    between atoms: _102  and  _103
REMARK   44  A    between atoms: _102  and  _105
REMARK   45  A    between atoms: _105  and  _106
REMARK   46  A    between atoms: _109  and  _111
REMARK   47  A    between atoms: _111  and  _112
REMARK   48  A    between atoms: _114  and  _116
REMARK   49  A    between atoms: _116  and  _117
REMARK   50  A    between atoms: _119  and  _121
REMARK   51  A    between atoms: _121  and  _122
REMARK   52  A    between atoms: _121  and  _124
REMARK   53  A    between atoms: _124  and  _125
REMARK   54  A    between atoms: _128  and  _130
REMARK   55  A    between atoms: _130  and  _131
REMARK   56  A    between atoms: _133  and  _135
REMARK   57  A    between atoms: _135  and  _136
REMARK   58  A    between atoms: _138  and  _140
REMARK   59  A    between atoms: _140  and  _141
REMARK   60  A    between atoms: _140  and  _143
REMARK   61  A    between atoms: _143  and  _144
REMARK   62  A    between atoms: _150  and  _152
REMARK   63  A    between atoms: _152  and  _153
REMARK   64  A    between atoms: _152  and  _155
REMARK   65  A    between atoms: _155  and  _156
REMARK   66  A    between atoms: _159  and  _161
REMARK   67  A    between atoms: _161  and  _162
REMARK   68  A    between atoms: _161  and  _164
REMARK   69  A    between atoms: _164  and  _165
REMARK   70  A    between atoms: _169  and  _170
REMARK   71  A    between atoms: _175  and  _177
REMARK   72  A    between atoms: _177  and  _178
REMARK   73  A    between atoms: _177  and  _180
REMARK   74  A    between atoms: _180  and  _181
REMARK   75  A    between atoms: _185  and  _186
REMARK   76  A    between atoms: _191  and  _193
REMARK   77  A    between atoms: _193  and  _194
REMARK   78  A    between atoms: _193  and  _196
REMARK   79  A    between atoms: _199  and  _201
REMARK   80  A    between atoms: _201  and  _202
REMARK   81  A    between atoms: _201  and  _204
REMARK   82  A    between atoms: _204  and  _205
REMARK   83  A    between atoms: _210  and  _212
REMARK   84  A    between atoms: _212  and  _213
REMARK   85  A    between atoms: _212  and  _215
REMARK   86  A    between atoms: _215  and  _216
REMARK   87  A    between atoms: _219  and  _221
REMARK   88  A    between atoms: _221  and  _222
REMARK   89  A    between atoms: _221  and  _224
REMARK   90  A    between atoms: _224  and  _225
REMARK   91  A    between atoms: _228  and  _230
REMARK   92  A    between atoms: _230  and  _231
REMARK   93  A    between atoms: _233  and  _235
REMARK   94  A    between atoms: _235  and  _236
REMARK   95  A    between atoms: _235  and  _238
REMARK   96  A    between atoms: _238  and  _239
REMARK   97  A    between atoms: _239  and  _240
REMARK   98  A    between atoms: _240  and  _241
REMARK   99  A    between atoms: _250  and  _252
REMARK  100  A    between atoms: _252  and  _253
REMARK  101  A    between atoms: _252  and  _255
REMARK  102  A    between atoms: _255  and  _256
REMARK  103  A    between atoms: _256  and  _257
REMARK  104  A    between atoms: _257  and  _258
REMARK  105  A    between atoms: _267  and  _269
REMARK  106  A    between atoms: _269  and  _270
REMARK  107  A    between atoms: _269  and  _272
REMARK  108  A    between atoms: _272  and  _273
REMARK  109  A    between atoms: _276  and  _278
REMARK  110  A    between atoms: _278  and  _279
REMARK  111  A    between atoms: _278  and  _281
REMARK  112  A    between atoms: _281  and  _282
REMARK  113  A    between atoms: _285  and  _287
REMARK  114  A    between atoms: _287  and  _288
REMARK  115  A    between atoms: _287  and  _290
REMARK  116  A    between atoms: _290  and  _291
REMARK  117  A    between atoms: _294  and  _296
REMARK  118  A    between atoms: _296  and  _297
REMARK  119  A    between atoms: _296  and  _299
REMARK  120  A    between atoms: _299  and  _300
REMARK  121  A    between atoms: _303  and  _305
REMARK  122  A    between atoms: _305  and  _306
REMARK  123  A    between atoms: _308  and  _310
REMARK  124  A    between atoms: _310  and  _311
REMARK  125  A    between atoms: _314  and  _316
REMARK  126  A    between atoms: _316  and  _317
REMARK  127  A    between atoms: _316  and  _319
REMARK  128  A    between atoms: _319  and  _320
REMARK  129  A    between atoms: _323  and  _325
REMARK  130  A    between atoms: _325  and  _326
REMARK  131  A    between atoms: _325  and  _328
REMARK  132  A    between atoms: _328  and  _329
REMARK  133  A    between atoms: _332  and  _334
REMARK  134  A    between atoms: _334  and  _335
REMARK  135  A    between atoms: _334  and  _337
REMARK  136  A    between atoms: _337  and  _338
REMARK  137  A    between atoms: _341  and  _343
REMARK  138  A    between atoms: _343  and  _344
REMARK  139  A    between atoms: _343  and  _346
REMARK  140  A    between atoms: _349  and  _351
REMARK  141  A    between atoms: _351  and  _352
REMARK  142  A    between atoms: _351  and  _354
REMARK  143  A    between atoms: _354  and  _355
REMARK  144  A    between atoms: _355  and  _356
REMARK  145  A    between atoms: _356  and  _357
REMARK  146  A    between atoms: _357  and  _358
REMARK  147  A    between atoms: _362  and  _364
REMARK  148  A    between atoms: _364  and  _365
REMARK  149  A    between atoms: _364  and  _367
REMARK  150  A    between atoms: _367  and  _368
REMARK  151  A    between atoms: _368  and  _369
REMARK  152  A    between atoms: _371  and  _373
REMARK  153  A    between atoms: _373  and  _374
REMARK  154  A    between atoms: _373  and  _376
REMARK  155  A    between atoms: _376  and  _377
REMARK  156  A    between atoms: _380  and  _382
REMARK  157  A    between atoms: _382  and  _383
REMARK  158  A    between atoms: _385  and  _387
REMARK  159  A    between atoms: _387  and  _388
REMARK  160  A    between atoms: _390  and  _392
REMARK  161  A    between atoms: _392  and  _393
REMARK  162  A    between atoms: _392  and  _395
REMARK  163  A    between atoms: _395  and  _396
REMARK  164  A    between atoms: _399  and  _401
REMARK  165  A    between atoms: _401  and  _402
REMARK  166  A    between atoms: _404  and  _406
REMARK  167  A    between atoms: _406  and  _407
REMARK  168  A    between atoms: _409  and  _411
REMARK  169  A    between atoms: _411  and  _412
REMARK  170  A    between atoms: _411  and  _414
REMARK  171  A    between atoms: _414  and  _415
REMARK  172  A    between atoms: _418  and  _420
REMARK  173  A    between atoms: _420  and  _421
REMARK  174  A    between atoms: _420  and  _423
REMARK  175  A    between atoms: _426  and  _428
REMARK  176  A    between atoms: _428  and  _429
REMARK  177  A    between atoms: _428  and  _431
REMARK  178  A    between atoms: _431  and  _432
REMARK  179  A    between atoms: _435  and  _437
REMARK  180  A    between atoms: _437  and  _438
REMARK  181  A    between atoms: _437  and  _440
REMARK  182  A    between atoms: _440  and  _441
REMARK  183  A    between atoms: _445  and  _446
REMARK  184  A    between atoms: _451  and  _453
REMARK  185  A    between atoms: _453  and  _454
REMARK  186  A    between atoms: _453  and  _456
REMARK  187  A    between atoms: _459  and  _461
REMARK  188  A    between atoms: _461  and  _462
REMARK  189  A    between atoms: _461  and  _464
REMARK  190  A    between atoms: _464  and  _465
REMARK  191  A    between atoms: _470  and  _472
REMARK  192  A    between atoms: _472  and  _473
REMARK  193  A    between atoms: _472  and  _475
REMARK  194  A    between atoms: _475  and  _476
REMARK  195  A    between atoms: _479  and  _481
REMARK  196  A    between atoms: _481  and  _482
REMARK  197  A    between atoms: _481  and  _484
REMARK  198  A    between atoms: _484  and  _485
REMARK  199  A    between atoms: _488  and  _490
REMARK  200  A    between atoms: _490  and  _491
REMARK  201  A    between atoms: _493  and  _495
REMARK  202  A    between atoms: _495  and  _496
REMARK  203  A    between atoms: _495  and  _498
REMARK  204  A    between atoms: _498  and  _499
REMARK  205  A    between atoms: _499  and  _500
REMARK  206  A    between atoms: _500  and  _501
REMARK  207  A    between atoms: _510  and  _512
REMARK  208  A    between atoms: _512  and  _513
REMARK  209  A    between atoms: _512  and  _515
REMARK  210  A    between atoms: _515  and  _516
REMARK                            x       y       z     vdW  Elec       q    Type
REMARK                         _______ _______ _______ _____ _____    ______ ____
ROOT
ATOM      1  O   HOH     1       5.318  -3.030  11.671  0.00  0.00    +0.000 OA
ENDROOT
TORSDOF 0
REMARK  Name = ../refined-set-2016/1d4l/1d4l_pocket.pdb
REMARK  210 active torsions:
REMARK  status: ('A' for Active; 'I' for Inactive)
REMARK    1  A    between atoms: _1  and  _3
REMARK    2  A    between atoms: _3  and  _4
REMARK    3  A    between atoms: _3  and  _6
REMARK    4  A    between atoms: _6  and  _7
REMARK    5  A    between atoms: _7  and  _8
REMARK    6  A    between atoms: _8  and  _9
REMARK    7  A    between atoms: _18  and  _20
REMARK    8  A    between atoms: _20  and  _21
REMARK    9  A    between atoms: _20  and  _23
REMARK   10  A    between atoms: _23  and  _24
REMARK   11  A    between atoms: _27  and  _29
REMARK   12  A    between atoms: _29  and  _30
REMARK   13  A    between atoms: _29  and  _32
REMARK   14  A    between atoms: _32  and  _33
REMARK   15  A    between atoms: _36  and  _38
REMARK   16  A    between atoms: _38  and  _39
REMARK   17  A    between atoms: _38  and  _41
REMARK   18  A    between atoms: _41  and  _42
REMARK   19  A    between atoms: _45  and  _47
REMARK   20  A    between atoms: _47  and  _48
REMARK   21  A    between atoms: _47  and  _50
REMARK   22  A    between atoms: _50  and  _51
REMARK   23  A    between atoms: _54  and  _56
REMARK   24  A    between atoms: _56  and  _57
REMARK   25  A    between atoms: _59  and  _61
REMARK   26  A    between atoms: _61  and  _62
REMARK   27  A    between atoms: _65  and  _67
REMARK   28  A    between atoms: _67  and  _68
REMARK   29  A    between atoms: _67  and  _70
REMARK   30  A    between atoms: _70  and  _71
REMARK   31  A    between atoms: _74  and  _76
REMARK   32  A    between atoms: _76  and  _77
REMARK   33  A    between atoms: _76  and  _79
REMARK   34  A    between atoms: _79  and  _80
REMARK   35  A    between atoms: _83  and  _85
REMARK   36  A    between atoms: _85  and  _86
REMARK   37  A    between atoms: _85  and  _88
REMARK   38  A    between atoms: _88  and  _89
REMARK   39  A    between atoms: _92  and  _94
REMARK   40  A    between atoms: _94  and  _95
REMARK   41  A    between atoms: _94  and  _97
REMARK   42  A    between atoms: _100  and  _102
REMARK   43  A    between atoms: _102  and  _103
REMARK   44  A    between atoms: _102  and  _105
REMARK   45  A    between atoms: _105  and  _106
REMARK   46  A    between atoms: _109  and  _111
REMARK   47  A    between atoms: _111  and  _112
REMARK   48  A    between atoms: _114  and  _116
REMARK   49  A    between atoms: _116  and  _117
REMARK   50  A    between atoms: _119  and  _121
REMARK   51  A    between atoms: _121  and  _122
REMARK   52  A    between atoms: _121  and  _124
REMARK   53  A    between atoms: _124  and  _125
REMARK   54  A    between atoms: _128  and  _130
REMARK   55  A    between atoms: _130  and  _131
REMARK   56  A    between atoms: _133  and  _135
REMARK   57  A    between atoms: _135  and  _136
REMARK   58  A    between atoms: _138  and  _140
REMARK   59  A    between atoms: _140  and  _141
REMARK   60  A    between atoms: _140  and  _143
REMARK   61  A    between atoms: _143  and  _144
REMARK   62  A    between atoms: _150  and  _152
REMARK   63  A    between atoms: _152  and  _153
REMARK   64  A    between atoms: _152  and  _155
REMARK   65  A    between atoms: _155  and  _156
REMARK   66  A    between atoms: _159  and  _161
REMARK   67  A    between atoms: _161  and  _162
REMARK   68  A    between atoms: _161  and  _164
REMARK   69  A    between atoms: _164  and  _165
REMARK   70  A    between atoms: _169  and  _170
REMARK   71  A    between atoms: _175  and  _177
REMARK   72  A    between atoms: _177  and  _178
REMARK   73  A    between atoms: _177  and  _180
REMARK   74  A    between atoms: _180  and  _181
REMARK   75  A    between atoms: _185  and  _186
REMARK   76  A    between atoms: _191  and  _193
REMARK   77  A    between atoms: _193  and  _194
REMARK   78  A    between atoms: _193  and  _196
REMARK   79  A    between atoms: _199  and  _201
REMARK   80  A    between atoms: _201  and  _202
REMARK   81  A    between atoms: _201  and  _204
REMARK   82  A    between atoms: _204  and  _205
REMARK   83  A    between atoms: _210  and  _212
REMARK   84  A    between atoms: _212  and  _213
REMARK   85  A    between atoms: _212  and  _215
REMARK   86  A    between atoms: _215  and  _216
REMARK   87  A    between atoms: _219  and  _221
REMARK   88  A    between atoms: _221  and  _222
REMARK   89  A    between atoms: _221  and  _224
REMARK   90  A    between atoms: _224  and  _225
REMARK   91  A    between atoms: _228  and  _230
REMARK   92  A    between atoms: _230  and  _231
REMARK   93  A    between atoms: _233  and  _235
REMARK   94  A    between atoms: _235  and  _236
REMARK   95  A    between atoms: _235  and  _238
REMARK   96  A    between atoms: _238  and  _239
REMARK   97  A    between atoms: _239  and  _240
REMARK   98  A    between atoms: _240  and  _241
REMARK   99  A    between atoms: _250  and  _252
REMARK  100  A    between atoms: _252  and  _253
REMARK  101  A    between atoms: _252  and  _255
REMARK  102  A    between atoms: _255  and  _256
REMARK  103  A    between atoms: _256  and  _257
REMARK  104  A    between atoms: _257  and  _258
REMARK  105  A    between atoms: _267  and  _269
REMARK  106  A    between atoms: _269  and  _270
REMARK  107  A    between atoms: _269  and  _272
REMARK  108  A    between atoms: _272  and  _273
REMARK  109  A    between atoms: _276  and  _278
REMARK  110  A    between atoms: _278  and  _279
REMARK  111  A    between atoms: _278  and  _281
REMARK  112  A    between atoms: _281  and  _282
REMARK  113  A    between atoms: _285  and  _287
REMARK  114  A    between atoms: _287  and  _288
REMARK  115  A    between atoms: _287  and  _290
REMARK  116  A    between atoms: _290  and  _291
REMARK  117  A    between atoms: _294  and  _296
REMARK  118  A    between atoms: _296  and  _297
REMARK  119  A    between atoms: _296  and  _299
REMARK  120  A    between atoms: _299  and  _300
REMARK  121  A    between atoms: _303  and  _305
REMARK  122  A    between atoms: _305  and  _306
REMARK  123  A    between atoms: _308  and  _310
REMARK  124  A    between atoms: _310  and  _311
REMARK  125  A    between atoms: _314  and  _316
REMARK  126  A    between atoms: _316  and  _317
REMARK  127  A    between atoms: _316  and  _319
REMARK  128  A    between atoms: _319  and  _320
REMARK  129  A    between atoms: _323  and  _325
REMARK  130  A    between atoms: _325  and  _326
REMARK  131  A    between atoms: _325  and  _328
REMARK  132  A    between atoms: _328  and  _329
REMARK  133  A    between atoms: _332  and  _334
REMARK  134  A    between atoms: _334  and  _335
REMARK  135  A    between atoms: _334  and  _337
REMARK  136  A    between atoms: _337  and  _338
REMARK  137  A    between atoms: _341  and  _343
REMARK  138  A    between atoms: _343  and  _344
REMARK  139  A    between atoms: _343  and  _346
REMARK  140  A    between atoms: _349  and  _351
REMARK  141  A    between atoms: _351  and  _352
REMARK  142  A    between atoms: _351  and  _354
REMARK  143  A    between atoms: _354  and  _355
REMARK  144  A    between atoms: _355  and  _356
REMARK  145  A    between atoms: _356  and  _357
REMARK  146  A    between atoms: _357  and  _358
REMARK  147  A    between atoms: _362  and  _364
REMARK  148  A    between atoms: _364  and  _365
REMARK  149  A    between atoms: _364  and  _367
REMARK  150  A    between atoms: _367  and  _368
REMARK  151  A    between atoms: _368  and  _369
REMARK  152  A    between atoms: _371  and  _373
REMARK  153  A    between atoms: _373  and  _374
REMARK  154  A    between atoms: _373  and  _376
REMARK  155  A    between atoms: _376  and  _377
REMARK  156  A    between atoms: _380  and  _382
REMARK  157  A    between atoms: _382  and  _383
REMARK  158  A    between atoms: _385  and  _387
REMARK  159  A    between atoms: _387  and  _388
REMARK  160  A    between atoms: _390  and  _392
REMARK  161  A    between atoms: _392  and  _393
REMARK  162  A    between atoms: _392  and  _395
REMARK  163  A    between atoms: _395  and  _396
REMARK  164  A    between atoms: _399  and  _401
REMARK  165  A    between atoms: _401  and  _402
REMARK  166  A    between atoms: _404  and  _406
REMARK  167  A    between atoms: _406  and  _407
REMARK  168  A    between atoms: _409  and  _411
REMARK  169  A    between atoms: _411  and  _412
REMARK  170  A    between atoms: _411  and  _414
REMARK  171  A    between atoms: _414  and  _415
REMARK  172  A    between atoms: _418  and  _420
REMARK  173  A    between atoms: _420  and  _421
REMARK  174  A    between atoms: _420  and  _423
REMARK  175  A    between atoms: _426  and  _428
REMARK  176  A    between atoms: _428  and  _429
REMARK  177  A    between atoms: _428  and  _431
REMARK  178  A    between atoms: _431  and  _432
REMARK  179  A    between atoms: _435  and  _437
REMARK  180  A    between atoms: _437  and  _438
REMARK  181  A    between atoms: _437  and  _440
REMARK  182  A    between atoms: _440  and  _441
REMARK  183  A    between atoms: _445  and  _446
REMARK  184  A    between atoms: _451  and  _453
REMARK  185  A    between atoms: _453  and  _454
REMARK  186  A    between atoms: _453  and  _456
REMARK  187  A    between atoms: _459  and  _461
REMARK  188  A    between atoms: _461  and  _462
REMARK  189  A    between atoms: _461  and  _464
REMARK  190  A    between atoms: _464  and  _465
REMARK  191  A    between atoms: _470  and  _472
REMARK  192  A    between atoms: _472  and  _473
REMARK  193  A    between atoms: _472  and  _475
REMARK  194  A    between atoms: _475  and  _476
REMARK  195  A    between atoms: _479  and  _481
REMARK  196  A    between atoms: _481  and  _482
REMARK  197  A    between atoms: _481  and  _484
REMARK  198  A    between atoms: _484  and  _485
REMARK  199  A    between atoms: _488  and  _490
REMARK  200  A    between atoms: _490  and  _491
REMARK  201  A    between atoms: _493  and  _495
REMARK  202  A    between atoms: _495  and  _496
REMARK  203  A    between atoms: _495  and  _498
REMARK  204  A    between atoms: _498  and  _499
REMARK  205  A    between atoms: _499  and  _500
REMARK  206  A    between atoms: _500  and  _501
REMARK  207  A    between atoms: _510  and  _512
REMARK  208  A    between atoms: _512  and  _513
REMARK  209  A    between atoms: _512  and  _515
REMARK  210  A    between atoms: _515  and  _516
REMARK                            x       y       z     vdW  Elec       q    Type
REMARK                         _______ _______ _______ _____ _____    ______ ____
ROOT
ATOM      1  O   HOH     1      -0.531  10.477  13.473  0.00  0.00    +0.000 OA
ENDROOT
TORSDOF 0
REMARK  Name = ../refined-set-2016/1d4l/1d4l_pocket.pdb
REMARK  210 active torsions:
REMARK  status: ('A' for Active; 'I' for Inactive)
REMARK    1  A    between atoms: _1  and  _3
REMARK    2  A    between atoms: _3  and  _4
REMARK    3  A    between atoms: _3  and  _6
REMARK    4  A    between atoms: _6  and  _7
REMARK    5  A    between atoms: _7  and  _8
REMARK    6  A    between atoms: _8  and  _9
REMARK    7  A    between atoms: _18  and  _20
REMARK    8  A    between atoms: _20  and  _21
REMARK    9  A    between atoms: _20  and  _23
REMARK   10  A    between atoms: _23  and  _24
REMARK   11  A    between atoms: _27  and  _29
REMARK   12  A    between atoms: _29  and  _30
REMARK   13  A    between atoms: _29  and  _32
REMARK   14  A    between atoms: _32  and  _33
REMARK   15  A    between atoms: _36  and  _38
REMARK   16  A    between atoms: _38  and  _39
REMARK   17  A    between atoms: _38  and  _41
REMARK   18  A    between atoms: _41  and  _42
REMARK   19  A    between atoms: _45  and  _47
REMARK   20  A    between atoms: _47  and  _48
REMARK   21  A    between atoms: _47  and  _50
REMARK   22  A    between atoms: _50  and  _51
REMARK   23  A    between atoms: _54  and  _56
REMARK   24  A    between atoms: _56  and  _57
REMARK   25  A    between atoms: _59  and  _61
REMARK   26  A    between atoms: _61  and  _62
REMARK   27  A    between atoms: _65  and  _67
REMARK   28  A    between atoms: _67  and  _68
REMARK   29  A    between atoms: _67  and  _70
REMARK   30  A    between atoms: _70  and  _71
REMARK   31  A    between atoms: _74  and  _76
REMARK   32  A    between atoms: _76  and  _77
REMARK   33  A    between atoms: _76  and  _79
REMARK   34  A    between atoms: _79  and  _80
REMARK   35  A    between atoms: _83  and  _85
REMARK   36  A    between atoms: _85  and  _86
REMARK   37  A    between atoms: _85  and  _88
REMARK   38  A    between atoms: _88  and  _89
REMARK   39  A    between atoms: _92  and  _94
REMARK   40  A    between atoms: _94  and  _95
REMARK   41  A    between atoms: _94  and  _97
REMARK   42  A    between atoms: _100  and  _102
REMARK   43  A    between atoms: _102  and  _103
REMARK   44  A    between atoms: _102  and  _105
REMARK   45  A    between atoms: _105  and  _106
REMARK   46  A    between atoms: _109  and  _111
REMARK   47  A    between atoms: _111  and  _112
REMARK   48  A    between atoms: _114  and  _116
REMARK   49  A    between atoms: _116  and  _117
REMARK   50  A    between atoms: _119  and  _121
REMARK   51  A    between atoms: _121  and  _122
REMARK   52  A    between atoms: _121  and  _124
REMARK   53  A    between atoms: _124  and  _125
REMARK   54  A    between atoms: _128  and  _130
REMARK   55  A    between atoms: _130  and  _131
REMARK   56  A    between atoms: _133  and  _135
REMARK   57  A    between atoms: _135  and  _136
REMARK   58  A    between atoms: _138  and  _140
REMARK   59  A    between atoms: _140  and  _141
REMARK   60  A    between atoms: _140  and  _143
REMARK   61  A    between atoms: _143  and  _144
REMARK   62  A    between atoms: _150  and  _152
REMARK   63  A    between atoms: _152  and  _153
REMARK   64  A    between atoms: _152  and  _155
REMARK   65  A    between atoms: _155  and  _156
REMARK   66  A    between atoms: _159  and  _161
REMARK   67  A    between atoms: _161  and  _162
REMARK   68  A    between atoms: _161  and  _164
REMARK   69  A    between atoms: _164  and  _165
REMARK   70  A    between atoms: _169  and  _170
REMARK   71  A    between atoms: _175  and  _177
REMARK   72  A    between atoms: _177  and  _178
REMARK   73  A    between atoms: _177  and  _180
REMARK   74  A    between atoms: _180  and  _181
REMARK   75  A    between atoms: _185  and  _186
REMARK   76  A    between atoms: _191  and  _193
REMARK   77  A    between atoms: _193  and  _194
REMARK   78  A    between atoms: _193  and  _196
REMARK   79  A    between atoms: _199  and  _201
REMARK   80  A    between atoms: _201  and  _202
REMARK   81  A    between atoms: _201  and  _204
REMARK   82  A    between atoms: _204  and  _205
REMARK   83  A    between atoms: _210  and  _212
REMARK   84  A    between atoms: _212  and  _213
REMARK   85  A    between atoms: _212  and  _215
REMARK   86  A    between atoms: _215  and  _216
REMARK   87  A    between atoms: _219  and  _221
REMARK   88  A    between atoms: _221  and  _222
REMARK   89  A    between atoms: _221  and  _224
REMARK   90  A    between atoms: _224  and  _225
REMARK   91  A    between atoms: _228  and  _230
REMARK   92  A    between atoms: _230  and  _231
REMARK   93  A    between atoms: _233  and  _235
REMARK   94  A    between atoms: _235  and  _236
REMARK   95  A    between atoms: _235  and  _238
REMARK   96  A    between atoms: _238  and  _239
REMARK   97  A    between atoms: _239  and  _240
REMARK   98  A    between atoms: _240  and  _241
REMARK   99  A    between atoms: _250  and  _252
REMARK  100  A    between atoms: _252  and  _253
REMARK  101  A    between atoms: _252  and  _255
REMARK  102  A    between atoms: _255  and  _256
REMARK  103  A    between atoms: _256  and  _257
REMARK  104  A    between atoms: _257  and  _258
REMARK  105  A    between atoms: _267  and  _269
REMARK  106  A    between atoms: _269  and  _270
REMARK  107  A    between atoms: _269  and  _272
REMARK  108  A    between atoms: _272  and  _273
REMARK  109  A    between atoms: _276  and  _278
REMARK  110  A    between atoms: _278  and  _279
REMARK  111  A    between atoms: _278  and  _281
REMARK  112  A    between atoms: _281  and  _282
REMARK  113  A    between atoms: _285  and  _287
REMARK  114  A    between atoms: _287  and  _288
REMARK  115  A    between atoms: _287  and  _290
REMARK  116  A    between atoms: _290  and  _291
REMARK  117  A    between atoms: _294  and  _296
REMARK  118  A    between atoms: _296  and  _297
REMARK  119  A    between atoms: _296  and  _299
REMARK  120  A    between atoms: _299  and  _300
REMARK  121  A    between atoms: _303  and  _305
REMARK  122  A    between atoms: _305  and  _306
REMARK  123  A    between atoms: _308  and  _310
REMARK  124  A    between atoms: _310  and  _311
REMARK  125  A    between atoms: _314  and  _316
REMARK  126  A    between atoms: _316  and  _317
REMARK  127  A    between atoms: _316  and  _319
REMARK  128  A    between atoms: _319  and  _320
REMARK  129  A    between atoms: _323  and  _325
REMARK  130  A    between atoms: _325  and  _326
REMARK  131  A    between atoms: _325  and  _328
REMARK  132  A    between atoms: _328  and  _329
REMARK  133  A    between atoms: _332  and  _334
REMARK  134  A    between atoms: _334  and  _335
REMARK  135  A    between atoms: _334  and  _337
REMARK  136  A    between atoms: _337  and  _338
REMARK  137  A    between atoms: _341  and  _343
REMARK  138  A    between atoms: _343  and  _344
REMARK  139  A    between atoms: _343  and  _346
REMARK  140  A    between atoms: _349  and  _351
REMARK  141  A    between atoms: _351  and  _352
REMARK  142  A    between atoms: _351  and  _354
REMARK  143  A    between atoms: _354  and  _355
REMARK  144  A    between atoms: _355  and  _356
REMARK  145  A    between atoms: _356  and  _357
REMARK  146  A    between atoms: _357  and  _358
REMARK  147  A    between atoms: _362  and  _364
REMARK  148  A    between atoms: _364  and  _365
REMARK  149  A    between atoms: _364  and  _367
REMARK  150  A    between atoms: _367  and  _368
REMARK  151  A    between atoms: _368  and  _369
REMARK  152  A    between atoms: _371  and  _373
REMARK  153  A    between atoms: _373  and  _374
REMARK  154  A    between atoms: _373  and  _376
REMARK  155  A    between atoms: _376  and  _377
REMARK  156  A    between atoms: _380  and  _382
REMARK  157  A    between atoms: _382  and  _383
REMARK  158  A    between atoms: _385  and  _387
REMARK  159  A    between atoms: _387  and  _388
REMARK  160  A    between atoms: _390  and  _392
REMARK  161  A    between atoms: _392  and  _393
REMARK  162  A    between atoms: _392  and  _395
REMARK  163  A    between atoms: _395  and  _396
REMARK  164  A    between atoms: _399  and  _401
REMARK  165  A    between atoms: _401  and  _402
REMARK  166  A    between atoms: _404  and  _406
REMARK  167  A    between atoms: _406  and  _407
REMARK  168  A    between atoms: _409  and  _411
REMARK  169  A    between atoms: _411  and  _412
REMARK  170  A    between atoms: _411  and  _414
REMARK  171  A    between atoms: _414  and  _415
REMARK  172  A    between atoms: _418  and  _420
REMARK  173  A    between atoms: _420  and  _421
REMARK  174  A    between atoms: _420  and  _423
REMARK  175  A    between atoms: _426  and  _428
REMARK  176  A    between atoms: _428  and  _429
REMARK  177  A    between atoms: _428  and  _431
REMARK  178  A    between atoms: _431  and  _432
REMARK  179  A    between atoms: _435  and  _437
REMARK  180  A    between atoms: _437  and  _438
REMARK  181  A    between atoms: _437  and  _440
REMARK  182  A    between atoms: _440  and  _441
REMARK  183  A    between atoms: _445  and  _446
REMARK  184  A    between atoms: _451  and  _453
REMARK  185  A    between atoms: _453  and  _454
REMARK  186  A    between atoms: _453  and  _456
REMARK  187  A    between atoms: _459  and  _461
REMARK  188  A    between atoms: _461  and  _462
REMARK  189  A    between atoms: _461  and  _464
REMARK  190  A    between atoms: _464  and  _465
REMARK  191  A    between atoms: _470  and  _472
REMARK  192  A    between atoms: _472  and  _473
REMARK  193  A    between atoms: _472  and  _475
REMARK  194  A    between atoms: _475  and  _476
REMARK  195  A    between atoms: _479  and  _481
REMARK  196  A    between atoms: _481  and  _482
REMARK  197  A    between atoms: _481  and  _484
REMARK  198  A    between atoms: _484  and  _485
REMARK  199  A    between atoms: _488  and  _490
REMARK  200  A    between atoms: _490  and  _491
REMARK  201  A    between atoms: _493  and  _495
REMARK  202  A    between atoms: _495  and  _496
REMARK  203  A    between atoms: _495  and  _498
REMARK  204  A    between atoms: _498  and  _499
REMARK  205  A    between atoms: _499  and  _500
REMARK  206  A    between atoms: _500  and  _501
REMARK  207  A    between atoms: _510  and  _512
REMARK  208  A    between atoms: _512  and  _513
REMARK  209  A    between atoms: _512  and  _515
REMARK  210  A    between atoms: _515  and  _516
REMARK                            x       y       z     vdW  Elec       q    Type
REMARK                         _______ _______ _______ _____ _____    ______ ____
ROOT
ATOM      1  O   HOH     1      -5.774   5.611  12.129  0.00  0.00    +0.000 OA
ENDROOT
TORSDOF 0
REMARK  Name = ../refined-set-2016/1d4l/1d4l_pocket.pdb
REMARK  210 active torsions:
REMARK  status: ('A' for Active; 'I' for Inactive)
REMARK    1  A    between atoms: _1  and  _3
REMARK    2  A    between atoms: _3  and  _4
REMARK    3  A    between atoms: _3  and  _6
REMARK    4  A    between atoms: _6  and  _7
REMARK    5  A    between atoms: _7  and  _8
REMARK    6  A    between atoms: _8  and  _9
REMARK    7  A    between atoms: _18  and  _20
REMARK    8  A    between atoms: _20  and  _21
REMARK    9  A    between atoms: _20  and  _23
REMARK   10  A    between atoms: _23  and  _24
REMARK   11  A    between atoms: _27  and  _29
REMARK   12  A    between atoms: _29  and  _30
REMARK   13  A    between atoms: _29  and  _32
REMARK   14  A    between atoms: _32  and  _33
REMARK   15  A    between atoms: _36  and  _38
REMARK   16  A    between atoms: _38  and  _39
REMARK   17  A    between atoms: _38  and  _41
REMARK   18  A    between atoms: _41  and  _42
REMARK   19  A    between atoms: _45  and  _47
REMARK   20  A    between atoms: _47  and  _48
REMARK   21  A    between atoms: _47  and  _50
REMARK   22  A    between atoms: _50  and  _51
REMARK   23  A    between atoms: _54  and  _56
REMARK   24  A    between atoms: _56  and  _57
REMARK   25  A    between atoms: _59  and  _61
REMARK   26  A    between atoms: _61  and  _62
REMARK   27  A    between atoms: _65  and  _67
REMARK   28  A    between atoms: _67  and  _68
REMARK   29  A    between atoms: _67  and  _70
REMARK   30  A    between atoms: _70  and  _71
REMARK   31  A    between atoms: _74  and  _76
REMARK   32  A    between atoms: _76  and  _77
REMARK   33  A    between atoms: _76  and  _79
REMARK   34  A    between atoms: _79  and  _80
REMARK   35  A    between atoms: _83  and  _85
REMARK   36  A    between atoms: _85  and  _86
REMARK   37  A    between atoms: _85  and  _88
REMARK   38  A    between atoms: _88  and  _89
REMARK   39  A    between atoms: _92  and  _94
REMARK   40  A    between atoms: _94  and  _95
REMARK   41  A    between atoms: _94  and  _97
REMARK   42  A    between atoms: _100  and  _102
REMARK   43  A    between atoms: _102  and  _103
REMARK   44  A    between atoms: _102  and  _105
REMARK   45  A    between atoms: _105  and  _106
REMARK   46  A    between atoms: _109  and  _111
REMARK   47  A    between atoms: _111  and  _112
REMARK   48  A    between atoms: _114  and  _116
REMARK   49  A    between atoms: _116  and  _117
REMARK   50  A    between atoms: _119  and  _121
REMARK   51  A    between atoms: _121  and  _122
REMARK   52  A    between atoms: _121  and  _124
REMARK   53  A    between atoms: _124  and  _125
REMARK   54  A    between atoms: _128  and  _130
REMARK   55  A    between atoms: _130  and  _131
REMARK   56  A    between atoms: _133  and  _135
REMARK   57  A    between atoms: _135  and  _136
REMARK   58  A    between atoms: _138  and  _140
REMARK   59  A    between atoms: _140  and  _141
REMARK   60  A    between atoms: _140  and  _143
REMARK   61  A    between atoms: _143  and  _144
REMARK   62  A    between atoms: _150  and  _152
REMARK   63  A    between atoms: _152  and  _153
REMARK   64  A    between atoms: _152  and  _155
REMARK   65  A    between atoms: _155  and  _156
REMARK   66  A    between atoms: _159  and  _161
REMARK   67  A    between atoms: _161  and  _162
REMARK   68  A    between atoms: _161  and  _164
REMARK   69  A    between atoms: _164  and  _165
REMARK   70  A    between atoms: _169  and  _170
REMARK   71  A    between atoms: _175  and  _177
REMARK   72  A    between atoms: _177  and  _178
REMARK   73  A    between atoms: _177  and  _180
REMARK   74  A    between atoms: _180  and  _181
REMARK   75  A    between atoms: _185  and  _186
REMARK   76  A    between atoms: _191  and  _193
REMARK   77  A    between atoms: _193  and  _194
REMARK   78  A    between atoms: _193  and  _196
REMARK   79  A    between atoms: _199  and  _201
REMARK   80  A    between atoms: _201  and  _202
REMARK   81  A    between atoms: _201  and  _204
REMARK   82  A    between atoms: _204  and  _205
REMARK   83  A    between atoms: _210  and  _212
REMARK   84  A    between atoms: _212  and  _213
REMARK   85  A    between atoms: _212  and  _215
REMARK   86  A    between atoms: _215  and  _216
REMARK   87  A    between atoms: _219  and  _221
REMARK   88  A    between atoms: _221  and  _222
REMARK   89  A    between atoms: _221  and  _224
REMARK   90  A    between atoms: _224  and  _225
REMARK   91  A    between atoms: _228  and  _230
REMARK   92  A    between atoms: _230  and  _231
REMARK   93  A    between atoms: _233  and  _235
REMARK   94  A    between atoms: _235  and  _236
REMARK   95  A    between atoms: _235  and  _238
REMARK   96  A    between atoms: _238  and  _239
REMARK   97  A    between atoms: _239  and  _240
REMARK   98  A    between atoms: _240  and  _241
REMARK   99  A    between atoms: _250  and  _252
REMARK  100  A    between atoms: _252  and  _253
REMARK  101  A    between atoms: _252  and  _255
REMARK  102  A    between atoms: _255  and  _256
REMARK  103  A    between atoms: _256  and  _257
REMARK  104  A    between atoms: _257  and  _258
REMARK  105  A    between atoms: _267  and  _269
REMARK  106  A    between atoms: _269  and  _270
REMARK  107  A    between atoms: _269  and  _272
REMARK  108  A    between atoms: _272  and  _273
REMARK  109  A    between atoms: _276  and  _278
REMARK  110  A    between atoms: _278  and  _279
REMARK  111  A    between atoms: _278  and  _281
REMARK  112  A    between atoms: _281  and  _282
REMARK  113  A    between atoms: _285  and  _287
REMARK  114  A    between atoms: _287  and  _288
REMARK  115  A    between atoms: _287  and  _290
REMARK  116  A    between atoms: _290  and  _291
REMARK  117  A    between atoms: _294  and  _296
REMARK  118  A    between atoms: _296  and  _297
REMARK  119  A    between atoms: _296  and  _299
REMARK  120  A    between atoms: _299  and  _300
REMARK  121  A    between atoms: _303  and  _305
REMARK  122  A    between atoms: _305  and  _306
REMARK  123  A    between atoms: _308  and  _310
REMARK  124  A    between atoms: _310  and  _311
REMARK  125  A    between atoms: _314  and  _316
REMARK  126  A    between atoms: _316  and  _317
REMARK  127  A    between atoms: _316  and  _319
REMARK  128  A    between atoms: _319  and  _320
REMARK  129  A    between atoms: _323  and  _325
REMARK  130  A    between atoms: _325  and  _326
REMARK  131  A    between atoms: _325  and  _328
REMARK  132  A    between atoms: _328  and  _329
REMARK  133  A    between atoms: _332  and  _334
REMARK  134  A    between atoms: _334  and  _335
REMARK  135  A    between atoms: _334  and  _337
REMARK  136  A    between atoms: _337  and  _338
REMARK  137  A    between atoms: _341  and  _343
REMARK  138  A    between atoms: _343  and  _344
REMARK  139  A    between atoms: _343  and  _346
REMARK  140  A    between atoms: _349  and  _351
REMARK  141  A    between atoms: _351  and  _352
REMARK  142  A    between atoms: _351  and  _354
REMARK  143  A    between atoms: _354  and  _355
REMARK  144  A    between atoms: _355  and  _356
REMARK  145  A    between atoms: _356  and  _357
REMARK  146  A    between atoms: _357  and  _358
REMARK  147  A    between atoms: _362  and  _364
REMARK  148  A    between atoms: _364  and  _365
REMARK  149  A    between atoms: _364  and  _367
REMARK  150  A    between atoms: _367  and  _368
REMARK  151  A    between atoms: _368  and  _369
REMARK  152  A    between atoms: _371  and  _373
REMARK  153  A    between atoms: _373  and  _374
REMARK  154  A    between atoms: _373  and  _376
REMARK  155  A    between atoms: _376  and  _377
REMARK  156  A    between atoms: _380  and  _382
REMARK  157  A    between atoms: _382  and  _383
REMARK  158  A    between atoms: _385  and  _387
REMARK  159  A    between atoms: _387  and  _388
REMARK  160  A    between atoms: _390  and  _392
REMARK  161  A    between atoms: _392  and  _393
REMARK  162  A    between atoms: _392  and  _395
REMARK  163  A    between atoms: _395  and  _396
REMARK  164  A    between atoms: _399  and  _401
REMARK  165  A    between atoms: _401  and  _402
REMARK  166  A    between atoms: _404  and  _406
REMARK  167  A    between atoms: _406  and  _407
REMARK  168  A    between atoms: _409  and  _411
REMARK  169  A    between atoms: _411  and  _412
REMARK  170  A    between atoms: _411  and  _414
REMARK  171  A    between atoms: _414  and  _415
REMARK  172  A    between atoms: _418  and  _420
REMARK  173  A    between atoms: _420  and  _421
REMARK  174  A    between atoms: _420  and  _423
REMARK  175  A    between atoms: _426  and  _428
REMARK  176  A    between atoms: _428  and  _429
REMARK  177  A    between atoms: _428  and  _431
REMARK  178  A    between atoms: _431  and  _432
REMARK  179  A    between atoms: _435  and  _437
REMARK  180  A    between atoms: _437  and  _438
REMARK  181  A    between atoms: _437  and  _440
REMARK  182  A    between atoms: _440  and  _441
REMARK  183  A    between atoms: _445  and  _446
REMARK  184  A    between atoms: _451  and  _453
REMARK  185  A    between atoms: _453  and  _454
REMARK  186  A    between atoms: _453  and  _456
REMARK  187  A    between atoms: _459  and  _461
REMARK  188  A    between atoms: _461  and  _462
REMARK  189  A    between atoms: _461  and  _464
REMARK  190  A    between atoms: _464  and  _465
REMARK  191  A    between atoms: _470  and  _472
REMARK  192  A    between atoms: _472  and  _473
REMARK  193  A    between atoms: _472  and  _475
REMARK  194  A    between atoms: _475  and  _476
REMARK  195  A    between atoms: _479  and  _481
REMARK  196  A    between atoms: _481  and  _482
REMARK  197  A    between atoms: _481  and  _484
REMARK  198  A    between atoms: _484  and  _485
REMARK  199  A    between atoms: _488  and  _490
REMARK  200  A    between atoms: _490  and  _491
REMARK  201  A    between atoms: _493  and  _495
REMARK  202  A    between atoms: _495  and  _496
REMARK  203  A    between atoms: _495  and  _498
REMARK  204  A    between atoms: _498  and  _499
REMARK  205  A    between atoms: _499  and  _500
REMARK  206  A    between atoms: _500  and  _501
REMARK  207  A    between atoms: _510  and  _512
REMARK  208  A    between atoms: _512  and  _513
REMARK  209  A    between atoms: _512  and  _515
REMARK  210  A    between atoms: _515  and  _516
REMARK                            x       y       z     vdW  Elec       q    Type
REMARK                         _______ _______ _______ _____ _____    ______ ____
ROOT
ATOM      1  O   HOH     1       2.062   3.772   5.849  0.00  0.00    +0.000 OA
ENDROOT
TORSDOF 0
REMARK  Name = ../refined-set-2016/1d4l/1d4l_pocket.pdb
REMARK  210 active torsions:
REMARK  status: ('A' for Active; 'I' for Inactive)
REMARK    1  A    between atoms: _1  and  _3
REMARK    2  A    between atoms: _3  and  _4
REMARK    3  A    between atoms: _3  and  _6
REMARK    4  A    between atoms: _6  and  _7
REMARK    5  A    between atoms: _7  and  _8
REMARK    6  A    between atoms: _8  and  _9
REMARK    7  A    between atoms: _18  and  _20
REMARK    8  A    between atoms: _20  and  _21
REMARK    9  A    between atoms: _20  and  _23
REMARK   10  A    between atoms: _23  and  _24
REMARK   11  A    between atoms: _27  and  _29
REMARK   12  A    between atoms: _29  and  _30
REMARK   13  A    between atoms: _29  and  _32
REMARK   14  A    between atoms: _32  and  _33
REMARK   15  A    between atoms: _36  and  _38
REMARK   16  A    between atoms: _38  and  _39
REMARK   17  A    between atoms: _38  and  _41
REMARK   18  A    between atoms: _41  and  _42
REMARK   19  A    between atoms: _45  and  _47
REMARK   20  A    between atoms: _47  and  _48
REMARK   21  A    between atoms: _47  and  _50
REMARK   22  A    between atoms: _50  and  _51
REMARK   23  A    between atoms: _54  and  _56
REMARK   24  A    between atoms: _56  and  _57
REMARK   25  A    between atoms: _59  and  _61
REMARK   26  A    between atoms: _61  and  _62
REMARK   27  A    between atoms: _65  and  _67
REMARK   28  A    between atoms: _67  and  _68
REMARK   29  A    between atoms: _67  and  _70
REMARK   30  A    between atoms: _70  and  _71
REMARK   31  A    between atoms: _74  and  _76
REMARK   32  A    between atoms: _76  and  _77
REMARK   33  A    between atoms: _76  and  _79
REMARK   34  A    between atoms: _79  and  _80
REMARK   35  A    between atoms: _83  and  _85
REMARK   36  A    between atoms: _85  and  _86
REMARK   37  A    between atoms: _85  and  _88
REMARK   38  A    between atoms: _88  and  _89
REMARK   39  A    between atoms: _92  and  _94
REMARK   40  A    between atoms: _94  and  _95
REMARK   41  A    between atoms: _94  and  _97
REMARK   42  A    between atoms: _100  and  _102
REMARK   43  A    between atoms: _102  and  _103
REMARK   44  A    between atoms: _102  and  _105
REMARK   45  A    between atoms: _105  and  _106
REMARK   46  A    between atoms: _109  and  _111
REMARK   47  A    between atoms: _111  and  _112
REMARK   48  A    between atoms: _114  and  _116
REMARK   49  A    between atoms: _116  and  _117
REMARK   50  A    between atoms: _119  and  _121
REMARK   51  A    between atoms: _121  and  _122
REMARK   52  A    between atoms: _121  and  _124
REMARK   53  A    between atoms: _124  and  _125
REMARK   54  A    between atoms: _128  and  _130
REMARK   55  A    between atoms: _130  and  _131
REMARK   56  A    between atoms: _133  and  _135
REMARK   57  A    between atoms: _135  and  _136
REMARK   58  A    between atoms: _138  and  _140
REMARK   59  A    between atoms: _140  and  _141
REMARK   60  A    between atoms: _140  and  _143
REMARK   61  A    between atoms: _143  and  _144
REMARK   62  A    between atoms: _150  and  _152
REMARK   63  A    between atoms: _152  and  _153
REMARK   64  A    between atoms: _152  and  _155
REMARK   65  A    between atoms: _155  and  _156
REMARK   66  A    between atoms: _159  and  _161
REMARK   67  A    between atoms: _161  and  _162
REMARK   68  A    between atoms: _161  and  _164
REMARK   69  A    between atoms: _164  and  _165
REMARK   70  A    between atoms: _169  and  _170
REMARK   71  A    between atoms: _175  and  _177
REMARK   72  A    between atoms: _177  and  _178
REMARK   73  A    between atoms: _177  and  _180
REMARK   74  A    between atoms: _180  and  _181
REMARK   75  A    between atoms: _185  and  _186
REMARK   76  A    between atoms: _191  and  _193
REMARK   77  A    between atoms: _193  and  _194
REMARK   78  A    between atoms: _193  and  _196
REMARK   79  A    between atoms: _199  and  _201
REMARK   80  A    between atoms: _201  and  _202
REMARK   81  A    between atoms: _201  and  _204
REMARK   82  A    between atoms: _204  and  _205
REMARK   83  A    between atoms: _210  and  _212
REMARK   84  A    between atoms: _212  and  _213
REMARK   85  A    between atoms: _212  and  _215
REMARK   86  A    between atoms: _215  and  _216
REMARK   87  A    between atoms: _219  and  _221
REMARK   88  A    between atoms: _221  and  _222
REMARK   89  A    between atoms: _221  and  _224
REMARK   90  A    between atoms: _224  and  _225
REMARK   91  A    between atoms: _228  and  _230
REMARK   92  A    between atoms: _230  and  _231
REMARK   93  A    between atoms: _233  and  _235
REMARK   94  A    between atoms: _235  and  _236
REMARK   95  A    between atoms: _235  and  _238
REMARK   96  A    between atoms: _238  and  _239
REMARK   97  A    between atoms: _239  and  _240
REMARK   98  A    between atoms: _240  and  _241
REMARK   99  A    between atoms: _250  and  _252
REMARK  100  A    between atoms: _252  and  _253
REMARK  101  A    between atoms: _252  and  _255
REMARK  102  A    between atoms: _255  and  _256
REMARK  103  A    between atoms: _256  and  _257
REMARK  104  A    between atoms: _257  and  _258
REMARK  105  A    between atoms: _267  and  _269
REMARK  106  A    between atoms: _269  and  _270
REMARK  107  A    between atoms: _269  and  _272
REMARK  108  A    between atoms: _272  and  _273
REMARK  109  A    between atoms: _276  and  _278
REMARK  110  A    between atoms: _278  and  _279
REMARK  111  A    between atoms: _278  and  _281
REMARK  112  A    between atoms: _281  and  _282
REMARK  113  A    between atoms: _285  and  _287
REMARK  114  A    between atoms: _287  and  _288
REMARK  115  A    between atoms: _287  and  _290
REMARK  116  A    between atoms: _290  and  _291
REMARK  117  A    between atoms: _294  and  _296
REMARK  118  A    between atoms: _296  and  _297
REMARK  119  A    between atoms: _296  and  _299
REMARK  120  A    between atoms: _299  and  _300
REMARK  121  A    between atoms: _303  and  _305
REMARK  122  A    between atoms: _305  and  _306
REMARK  123  A    between atoms: _308  and  _310
REMARK  124  A    between atoms: _310  and  _311
REMARK  125  A    between atoms: _314  and  _316
REMARK  126  A    between atoms: _316  and  _317
REMARK  127  A    between atoms: _316  and  _319
REMARK  128  A    between atoms: _319  and  _320
REMARK  129  A    between atoms: _323  and  _325
REMARK  130  A    between atoms: _325  and  _326
REMARK  131  A    between atoms: _325  and  _328
REMARK  132  A    between atoms: _328  and  _329
REMARK  133  A    between atoms: _332  and  _334
REMARK  134  A    between atoms: _334  and  _335
REMARK  135  A    between atoms: _334  and  _337
REMARK  136  A    between atoms: _337  and  _338
REMARK  137  A    between atoms: _341  and  _343
REMARK  138  A    between atoms: _343  and  _344
REMARK  139  A    between atoms: _343  and  _346
REMARK  140  A    between atoms: _349  and  _351
REMARK  141  A    between atoms: _351  and  _352
REMARK  142  A    between atoms: _351  and  _354
REMARK  143  A    between atoms: _354  and  _355
REMARK  144  A    between atoms: _355  and  _356
REMARK  145  A    between atoms: _356  and  _357
REMARK  146  A    between atoms: _357  and  _358
REMARK  147  A    between atoms: _362  and  _364
REMARK  148  A    between atoms: _364  and  _365
REMARK  149  A    between atoms: _364  and  _367
REMARK  150  A    between atoms: _367  and  _368
REMARK  151  A    between atoms: _368  and  _369
REMARK  152  A    between atoms: _371  and  _373
REMARK  153  A    between atoms: _373  and  _374
REMARK  154  A    between atoms: _373  and  _376
REMARK  155  A    between atoms: _376  and  _377
REMARK  156  A    between atoms: _380  and  _382
REMARK  157  A    between atoms: _382  and  _383
REMARK  158  A    between atoms: _385  and  _387
REMARK  159  A    between atoms: _387  and  _388
REMARK  160  A    between atoms: _390  and  _392
REMARK  161  A    between atoms: _392  and  _393
REMARK  162  A    between atoms: _392  and  _395
REMARK  163  A    between atoms: _395  and  _396
REMARK  164  A    between atoms: _399  and  _401
REMARK  165  A    between atoms: _401  and  _402
REMARK  166  A    between atoms: _404  and  _406
REMARK  167  A    between atoms: _406  and  _407
REMARK  168  A    between atoms: _409  and  _411
REMARK  169  A    between atoms: _411  and  _412
REMARK  170  A    between atoms: _411  and  _414
REMARK  171  A    between atoms: _414  and  _415
REMARK  172  A    between atoms: _418  and  _420
REMARK  173  A    between atoms: _420  and  _421
REMARK  174  A    between atoms: _420  and  _423
REMARK  175  A    between atoms: _426  and  _428
REMARK  176  A    between atoms: _428  and  _429
REMARK  177  A    between atoms: _428  and  _431
REMARK  178  A    between atoms: _431  and  _432
REMARK  179  A    between atoms: _435  and  _437
REMARK  180  A    between atoms: _437  and  _438
REMARK  181  A    between atoms: _437  and  _440
REMARK  182  A    between atoms: _440  and  _441
REMARK  183  A    between atoms: _445  and  _446
REMARK  184  A    between atoms: _451  and  _453
REMARK  185  A    between atoms: _453  and  _454
REMARK  186  A    between atoms: _453  and  _456
REMARK  187  A    between atoms: _459  and  _461
REMARK  188  A    between atoms: _461  and  _462
REMARK  189  A    between atoms: _461  and  _464
REMARK  190  A    between atoms: _464  and  _465
REMARK  191  A    between atoms: _470  and  _472
REMARK  192  A    between atoms: _472  and  _473
REMARK  193  A    between atoms: _472  and  _475
REMARK  194  A    between atoms: _475  and  _476
REMARK  195  A    between atoms: _479  and  _481
REMARK  196  A    between atoms: _481  and  _482
REMARK  197  A    between atoms: _481  and  _484
REMARK  198  A    between atoms: _484  and  _485
REMARK  199  A    between atoms: _488  and  _490
REMARK  200  A    between atoms: _490  and  _491
REMARK  201  A    between atoms: _493  and  _495
REMARK  202  A    between atoms: _495  and  _496
REMARK  203  A    between atoms: _495  and  _498
REMARK  204  A    between atoms: _498  and  _499
REMARK  205  A    between atoms: _499  and  _500
REMARK  206  A    between atoms: _500  and  _501
REMARK  207  A    between atoms: _510  and  _512
REMARK  208  A    between atoms: _512  and  _513
REMARK  209  A    between atoms: _512  and  _515
REMARK  210  A    between atoms: _515  and  _516
REMARK                            x       y       z     vdW  Elec       q    Type
REMARK                         _______ _______ _______ _____ _____    ______ ____
ROOT
ATOM      1  O   HOH     1       4.953  -5.361  21.162  0.00  0.00    +0.000 OA
ENDROOT
TORSDOF 0
REMARK  Name = ../refined-set-2016/1d4l/1d4l_pocket.pdb
REMARK  210 active torsions:
REMARK  status: ('A' for Active; 'I' for Inactive)
REMARK    1  A    between atoms: _1  and  _3
REMARK    2  A    between atoms: _3  and  _4
REMARK    3  A    between atoms: _3  and  _6
REMARK    4  A    between atoms: _6  and  _7
REMARK    5  A    between atoms: _7  and  _8
REMARK    6  A    between atoms: _8  and  _9
REMARK    7  A    between atoms: _18  and  _20
REMARK    8  A    between atoms: _20  and  _21
REMARK    9  A    between atoms: _20  and  _23
REMARK   10  A    between atoms: _23  and  _24
REMARK   11  A    between atoms: _27  and  _29
REMARK   12  A    between atoms: _29  and  _30
REMARK   13  A    between atoms: _29  and  _32
REMARK   14  A    between atoms: _32  and  _33
REMARK   15  A    between atoms: _36  and  _38
REMARK   16  A    between atoms: _38  and  _39
REMARK   17  A    between atoms: _38  and  _41
REMARK   18  A    between atoms: _41  and  _42
REMARK   19  A    between atoms: _45  and  _47
REMARK   20  A    between atoms: _47  and  _48
REMARK   21  A    between atoms: _47  and  _50
REMARK   22  A    between atoms: _50  and  _51
REMARK   23  A    between atoms: _54  and  _56
REMARK   24  A    between atoms: _56  and  _57
REMARK   25  A    between atoms: _59  and  _61
REMARK   26  A    between atoms: _61  and  _62
REMARK   27  A    between atoms: _65  and  _67
REMARK   28  A    between atoms: _67  and  _68
REMARK   29  A    between atoms: _67  and  _70
REMARK   30  A    between atoms: _70  and  _71
REMARK   31  A    between atoms: _74  and  _76
REMARK   32  A    between atoms: _76  and  _77
REMARK   33  A    between atoms: _76  and  _79
REMARK   34  A    between atoms: _79  and  _80
REMARK   35  A    between atoms: _83  and  _85
REMARK   36  A    between atoms: _85  and  _86
REMARK   37  A    between atoms: _85  and  _88
REMARK   38  A    between atoms: _88  and  _89
REMARK   39  A    between atoms: _92  and  _94
REMARK   40  A    between atoms: _94  and  _95
REMARK   41  A    between atoms: _94  and  _97
REMARK   42  A    between atoms: _100  and  _102
REMARK   43  A    between atoms: _102  and  _103
REMARK   44  A    between atoms: _102  and  _105
REMARK   45  A    between atoms: _105  and  _106
REMARK   46  A    between atoms: _109  and  _111
REMARK   47  A    between atoms: _111  and  _112
REMARK   48  A    between atoms: _114  and  _116
REMARK   49  A    between atoms: _116  and  _117
REMARK   50  A    between atoms: _119  and  _121
REMARK   51  A    between atoms: _121  and  _122
REMARK   52  A    between atoms: _121  and  _124
REMARK   53  A    between atoms: _124  and  _125
REMARK   54  A    between atoms: _128  and  _130
REMARK   55  A    between atoms: _130  and  _131
REMARK   56  A    between atoms: _133  and  _135
REMARK   57  A    between atoms: _135  and  _136
REMARK   58  A    between atoms: _138  and  _140
REMARK   59  A    between atoms: _140  and  _141
REMARK   60  A    between atoms: _140  and  _143
REMARK   61  A    between atoms: _143  and  _144
REMARK   62  A    between atoms: _150  and  _152
REMARK   63  A    between atoms: _152  and  _153
REMARK   64  A    between atoms: _152  and  _155
REMARK   65  A    between atoms: _155  and  _156
REMARK   66  A    between atoms: _159  and  _161
REMARK   67  A    between atoms: _161  and  _162
REMARK   68  A    between atoms: _161  and  _164
REMARK   69  A    between atoms: _164  and  _165
REMARK   70  A    between atoms: _169  and  _170
REMARK   71  A    between atoms: _175  and  _177
REMARK   72  A    between atoms: _177  and  _178
REMARK   73  A    between atoms: _177  and  _180
REMARK   74  A    between atoms: _180  and  _181
REMARK   75  A    between atoms: _185  and  _186
REMARK   76  A    between atoms: _191  and  _193
REMARK   77  A    between atoms: _193  and  _194
REMARK   78  A    between atoms: _193  and  _196
REMARK   79  A    between atoms: _199  and  _201
REMARK   80  A    between atoms: _201  and  _202
REMARK   81  A    between atoms: _201  and  _204
REMARK   82  A    between atoms: _204  and  _205
REMARK   83  A    between atoms: _210  and  _212
REMARK   84  A    between atoms: _212  and  _213
REMARK   85  A    between atoms: _212  and  _215
REMARK   86  A    between atoms: _215  and  _216
REMARK   87  A    between atoms: _219  and  _221
REMARK   88  A    between atoms: _221  and  _222
REMARK   89  A    between atoms: _221  and  _224
REMARK   90  A    between atoms: _224  and  _225
REMARK   91  A    between atoms: _228  and  _230
REMARK   92  A    between atoms: _230  and  _231
REMARK   93  A    between atoms: _233  and  _235
REMARK   94  A    between atoms: _235  and  _236
REMARK   95  A    between atoms: _235  and  _238
REMARK   96  A    between atoms: _238  and  _239
REMARK   97  A    between atoms: _239  and  _240
REMARK   98  A    between atoms: _240  and  _241
REMARK   99  A    between atoms: _250  and  _252
REMARK  100  A    between atoms: _252  and  _253
REMARK  101  A    between atoms: _252  and  _255
REMARK  102  A    between atoms: _255  and  _256
REMARK  103  A    between atoms: _256  and  _257
REMARK  104  A    between atoms: _257  and  _258
REMARK  105  A    between atoms: _267  and  _269
REMARK  106  A    between atoms: _269  and  _270
REMARK  107  A    between atoms: _269  and  _272
REMARK  108  A    between atoms: _272  and  _273
REMARK  109  A    between atoms: _276  and  _278
REMARK  110  A    between atoms: _278  and  _279
REMARK  111  A    between atoms: _278  and  _281
REMARK  112  A    between atoms: _281  and  _282
REMARK  113  A    between atoms: _285  and  _287
REMARK  114  A    between atoms: _287  and  _288
REMARK  115  A    between atoms: _287  and  _290
REMARK  116  A    between atoms: _290  and  _291
REMARK  117  A    between atoms: _294  and  _296
REMARK  118  A    between atoms: _296  and  _297
REMARK  119  A    between atoms: _296  and  _299
REMARK  120  A    between atoms: _299  and  _300
REMARK  121  A    between atoms: _303  and  _305
REMARK  122  A    between atoms: _305  and  _306
REMARK  123  A    between atoms: _308  and  _310
REMARK  124  A    between atoms: _310  and  _311
REMARK  125  A    between atoms: _314  and  _316
REMARK  126  A    between atoms: _316  and  _317
REMARK  127  A    between atoms: _316  and  _319
REMARK  128  A    between atoms: _319  and  _320
REMARK  129  A    between atoms: _323  and  _325
REMARK  130  A    between atoms: _325  and  _326
REMARK  131  A    between atoms: _325  and  _328
REMARK  132  A    between atoms: _328  and  _329
REMARK  133  A    between atoms: _332  and  _334
REMARK  134  A    between atoms: _334  and  _335
REMARK  135  A    between atoms: _334  and  _337
REMARK  136  A    between atoms: _337  and  _338
REMARK  137  A    between atoms: _341  and  _343
REMARK  138  A    between atoms: _343  and  _344
REMARK  139  A    between atoms: _343  and  _346
REMARK  140  A    between atoms: _349  and  _351
REMARK  141  A    between atoms: _351  and  _352
REMARK  142  A    between atoms: _351  and  _354
REMARK  143  A    between atoms: _354  and  _355
REMARK  144  A    between atoms: _355  and  _356
REMARK  145  A    between atoms: _356  and  _357
REMARK  146  A    between atoms: _357  and  _358
REMARK  147  A    between atoms: _362  and  _364
REMARK  148  A    between atoms: _364  and  _365
REMARK  149  A    between atoms: _364  and  _367
REMARK  150  A    between atoms: _367  and  _368
REMARK  151  A    between atoms: _368  and  _369
REMARK  152  A    between atoms: _371  and  _373
REMARK  153  A    between atoms: _373  and  _374
REMARK  154  A    between atoms: _373  and  _376
REMARK  155  A    between atoms: _376  and  _377
REMARK  156  A    between atoms: _380  and  _382
REMARK  157  A    between atoms: _382  and  _383
REMARK  158  A    between atoms: _385  and  _387
REMARK  159  A    between atoms: _387  and  _388
REMARK  160  A    between atoms: _390  and  _392
REMARK  161  A    between atoms: _392  and  _393
REMARK  162  A    between atoms: _392  and  _395
REMARK  163  A    between atoms: _395  and  _396
REMARK  164  A    between atoms: _399  and  _401
REMARK  165  A    between atoms: _401  and  _402
REMARK  166  A    between atoms: _404  and  _406
REMARK  167  A    between atoms: _406  and  _407
REMARK  168  A    between atoms: _409  and  _411
REMARK  169  A    between atoms: _411  and  _412
REMARK  170  A    between atoms: _411  and  _414
REMARK  171  A    between atoms: _414  and  _415
REMARK  172  A    between atoms: _418  and  _420
REMARK  173  A    between atoms: _420  and  _421
REMARK  174  A    between atoms: _420  and  _423
REMARK  175  A    between atoms: _426  and  _428
REMARK  176  A    between atoms: _428  and  _429
REMARK  177  A    between atoms: _428  and  _431
REMARK  178  A    between atoms: _431  and  _432
REMARK  179  A    between atoms: _435  and  _437
REMARK  180  A    between atoms: _437  and  _438
REMARK  181  A    between atoms: _437  and  _440
REMARK  182  A    between atoms: _440  and  _441
REMARK  183  A    between atoms: _445  and  _446
REMARK  184  A    between atoms: _451  and  _453
REMARK  185  A    between atoms: _453  and  _454
REMARK  186  A    between atoms: _453  and  _456
REMARK  187  A    between atoms: _459  and  _461
REMARK  188  A    between atoms: _461  and  _462
REMARK  189  A    between atoms: _461  and  _464
REMARK  190  A    between atoms: _464  and  _465
REMARK  191  A    between atoms: _470  and  _472
REMARK  192  A    between atoms: _472  and  _473
REMARK  193  A    between atoms: _472  and  _475
REMARK  194  A    between atoms: _475  and  _476
REMARK  195  A    between atoms: _479  and  _481
REMARK  196  A    between atoms: _481  and  _482
REMARK  197  A    between atoms: _481  and  _484
REMARK  198  A    between atoms: _484  and  _485
REMARK  199  A    between atoms: _488  and  _490
REMARK  200  A    between atoms: _490  and  _491
REMARK  201  A    between atoms: _493  and  _495
REMARK  202  A    between atoms: _495  and  _496
REMARK  203  A    between atoms: _495  and  _498
REMARK  204  A    between atoms: _498  and  _499
REMARK  205  A    between atoms: _499  and  _500
REMARK  206  A    between atoms: _500  and  _501
REMARK  207  A    between atoms: _510  and  _512
REMARK  208  A    between atoms: _512  and  _513
REMARK  209  A    between atoms: _512  and  _515
REMARK  210  A    between atoms: _515  and  _516
REMARK                            x       y       z     vdW  Elec       q    Type
REMARK                         _______ _______ _______ _____ _____    ______ ____
ROOT
ATOM      1  O   HOH     1       5.145   7.597  15.546  0.00  0.00    +0.000 OA
ENDROOT
TORSDOF 0
REMARK  Name = ../refined-set-2016/1d4l/1d4l_pocket.pdb
REMARK  210 active torsions:
REMARK  status: ('A' for Active; 'I' for Inactive)
REMARK    1  A    between atoms: _1  and  _3
REMARK    2  A    between atoms: _3  and  _4
REMARK    3  A    between atoms: _3  and  _6
REMARK    4  A    between atoms: _6  and  _7
REMARK    5  A    between atoms: _7  and  _8
REMARK    6  A    between atoms: _8  and  _9
REMARK    7  A    between atoms: _18  and  _20
REMARK    8  A    between atoms: _20  and  _21
REMARK    9  A    between atoms: _20  and  _23
REMARK   10  A    between atoms: _23  and  _24
REMARK   11  A    between atoms: _27  and  _29
REMARK   12  A    between atoms: _29  and  _30
REMARK   13  A    between atoms: _29  and  _32
REMARK   14  A    between atoms: _32  and  _33
REMARK   15  A    between atoms: _36  and  _38
REMARK   16  A    between atoms: _38  and  _39
REMARK   17  A    between atoms: _38  and  _41
REMARK   18  A    between atoms: _41  and  _42
REMARK   19  A    between atoms: _45  and  _47
REMARK   20  A    between atoms: _47  and  _48
REMARK   21  A    between atoms: _47  and  _50
REMARK   22  A    between atoms: _50  and  _51
REMARK   23  A    between atoms: _54  and  _56
REMARK   24  A    between atoms: _56  and  _57
REMARK   25  A    between atoms: _59  and  _61
REMARK   26  A    between atoms: _61  and  _62
REMARK   27  A    between atoms: _65  and  _67
REMARK   28  A    between atoms: _67  and  _68
REMARK   29  A    between atoms: _67  and  _70
REMARK   30  A    between atoms: _70  and  _71
REMARK   31  A    between atoms: _74  and  _76
REMARK   32  A    between atoms: _76  and  _77
REMARK   33  A    between atoms: _76  and  _79
REMARK   34  A    between atoms: _79  and  _80
REMARK   35  A    between atoms: _83  and  _85
REMARK   36  A    between atoms: _85  and  _86
REMARK   37  A    between atoms: _85  and  _88
REMARK   38  A    between atoms: _88  and  _89
REMARK   39  A    between atoms: _92  and  _94
REMARK   40  A    between atoms: _94  and  _95
REMARK   41  A    between atoms: _94  and  _97
REMARK   42  A    between atoms: _100  and  _102
REMARK   43  A    between atoms: _102  and  _103
REMARK   44  A    between atoms: _102  and  _105
REMARK   45  A    between atoms: _105  and  _106
REMARK   46  A    between atoms: _109  and  _111
REMARK   47  A    between atoms: _111  and  _112
REMARK   48  A    between atoms: _114  and  _116
REMARK   49  A    between atoms: _116  and  _117
REMARK   50  A    between atoms: _119  and  _121
REMARK   51  A    between atoms: _121  and  _122
REMARK   52  A    between atoms: _121  and  _124
REMARK   53  A    between atoms: _124  and  _125
REMARK   54  A    between atoms: _128  and  _130
REMARK   55  A    between atoms: _130  and  _131
REMARK   56  A    between atoms: _133  and  _135
REMARK   57  A    between atoms: _135  and  _136
REMARK   58  A    between atoms: _138  and  _140
REMARK   59  A    between atoms: _140  and  _141
REMARK   60  A    between atoms: _140  and  _143
REMARK   61  A    between atoms: _143  and  _144
REMARK   62  A    between atoms: _150  and  _152
REMARK   63  A    between atoms: _152  and  _153
REMARK   64  A    between atoms: _152  and  _155
REMARK   65  A    between atoms: _155  and  _156
REMARK   66  A    between atoms: _159  and  _161
REMARK   67  A    between atoms: _161  and  _162
REMARK   68  A    between atoms: _161  and  _164
REMARK   69  A    between atoms: _164  and  _165
REMARK   70  A    between atoms: _169  and  _170
REMARK   71  A    between atoms: _175  and  _177
REMARK   72  A    between atoms: _177  and  _178
REMARK   73  A    between atoms: _177  and  _180
REMARK   74  A    between atoms: _180  and  _181
REMARK   75  A    between atoms: _185  and  _186
REMARK   76  A    between atoms: _191  and  _193
REMARK   77  A    between atoms: _193  and  _194
REMARK   78  A    between atoms: _193  and  _196
REMARK   79  A    between atoms: _199  and  _201
REMARK   80  A    between atoms: _201  and  _202
REMARK   81  A    between atoms: _201  and  _204
REMARK   82  A    between atoms: _204  and  _205
REMARK   83  A    between atoms: _210  and  _212
REMARK   84  A    between atoms: _212  and  _213
REMARK   85  A    between atoms: _212  and  _215
REMARK   86  A    between atoms: _215  and  _216
REMARK   87  A    between atoms: _219  and  _221
REMARK   88  A    between atoms: _221  and  _222
REMARK   89  A    between atoms: _221  and  _224
REMARK   90  A    between atoms: _224  and  _225
REMARK   91  A    between atoms: _228  and  _230
REMARK   92  A    between atoms: _230  and  _231
REMARK   93  A    between atoms: _233  and  _235
REMARK   94  A    between atoms: _235  and  _236
REMARK   95  A    between atoms: _235  and  _238
REMARK   96  A    between atoms: _238  and  _239
REMARK   97  A    between atoms: _239  and  _240
REMARK   98  A    between atoms: _240  and  _241
REMARK   99  A    between atoms: _250  and  _252
REMARK  100  A    between atoms: _252  and  _253
REMARK  101  A    between atoms: _252  and  _255
REMARK  102  A    between atoms: _255  and  _256
REMARK  103  A    between atoms: _256  and  _257
REMARK  104  A    between atoms: _257  and  _258
REMARK  105  A    between atoms: _267  and  _269
REMARK  106  A    between atoms: _269  and  _270
REMARK  107  A    between atoms: _269  and  _272
REMARK  108  A    between atoms: _272  and  _273
REMARK  109  A    between atoms: _276  and  _278
REMARK  110  A    between atoms: _278  and  _279
REMARK  111  A    between atoms: _278  and  _281
REMARK  112  A    between atoms: _281  and  _282
REMARK  113  A    between atoms: _285  and  _287
REMARK  114  A    between atoms: _287  and  _288
REMARK  115  A    between atoms: _287  and  _290
REMARK  116  A    between atoms: _290  and  _291
REMARK  117  A    between atoms: _294  and  _296
REMARK  118  A    between atoms: _296  and  _297
REMARK  119  A    between atoms: _296  and  _299
REMARK  120  A    between atoms: _299  and  _300
REMARK  121  A    between atoms: _303  and  _305
REMARK  122  A    between atoms: _305  and  _306
REMARK  123  A    between atoms: _308  and  _310
REMARK  124  A    between atoms: _310  and  _311
REMARK  125  A    between atoms: _314  and  _316
REMARK  126  A    between atoms: _316  and  _317
REMARK  127  A    between atoms: _316  and  _319
REMARK  128  A    between atoms: _319  and  _320
REMARK  129  A    between atoms: _323  and  _325
REMARK  130  A    between atoms: _325  and  _326
REMARK  131  A    between atoms: _325  and  _328
REMARK  132  A    between atoms: _328  and  _329
REMARK  133  A    between atoms: _332  and  _334
REMARK  134  A    between atoms: _334  and  _335
REMARK  135  A    between atoms: _334  and  _337
REMARK  136  A    between atoms: _337  and  _338
REMARK  137  A    between atoms: _341  and  _343
REMARK  138  A    between atoms: _343  and  _344
REMARK  139  A    between atoms: _343  and  _346
REMARK  140  A    between atoms: _349  and  _351
REMARK  141  A    between atoms: _351  and  _352
REMARK  142  A    between atoms: _351  and  _354
REMARK  143  A    between atoms: _354  and  _355
REMARK  144  A    between atoms: _355  and  _356
REMARK  145  A    between atoms: _356  and  _357
REMARK  146  A    between atoms: _357  and  _358
REMARK  147  A    between atoms: _362  and  _364
REMARK  148  A    between atoms: _364  and  _365
REMARK  149  A    between atoms: _364  and  _367
REMARK  150  A    between atoms: _367  and  _368
REMARK  151  A    between atoms: _368  and  _369
REMARK  152  A    between atoms: _371  and  _373
REMARK  153  A    between atoms: _373  and  _374
REMARK  154  A    between atoms: _373  and  _376
REMARK  155  A    between atoms: _376  and  _377
REMARK  156  A    between atoms: _380  and  _382
REMARK  157  A    between atoms: _382  and  _383
REMARK  158  A    between atoms: _385  and  _387
REMARK  159  A    between atoms: _387  and  _388
REMARK  160  A    between atoms: _390  and  _392
REMARK  161  A    between atoms: _392  and  _393
REMARK  162  A    between atoms: _392  and  _395
REMARK  163  A    between atoms: _395  and  _396
REMARK  164  A    between atoms: _399  and  _401
REMARK  165  A    between atoms: _401  and  _402
REMARK  166  A    between atoms: _404  and  _406
REMARK  167  A    between atoms: _406  and  _407
REMARK  168  A    between atoms: _409  and  _411
REMARK  169  A    between atoms: _411  and  _412
REMARK  170  A    between atoms: _411  and  _414
REMARK  171  A    between atoms: _414  and  _415
REMARK  172  A    between atoms: _418  and  _420
REMARK  173  A    between atoms: _420  and  _421
REMARK  174  A    between atoms: _420  and  _423
REMARK  175  A    between atoms: _426  and  _428
REMARK  176  A    between atoms: _428  and  _429
REMARK  177  A    between atoms: _428  and  _431
REMARK  178  A    between atoms: _431  and  _432
REMARK  179  A    between atoms: _435  and  _437
REMARK  180  A    between atoms: _437  and  _438
REMARK  181  A    between atoms: _437  and  _440
REMARK  182  A    between atoms: _440  and  _441
REMARK  183  A    between atoms: _445  and  _446
REMARK  184  A    between atoms: _451  and  _453
REMARK  185  A    between atoms: _453  and  _454
REMARK  186  A    between atoms: _453  and  _456
REMARK  187  A    between atoms: _459  and  _461
REMARK  188  A    between atoms: _461  and  _462
REMARK  189  A    between atoms: _461  and  _464
REMARK  190  A    between atoms: _464  and  _465
REMARK  191  A    between atoms: _470  and  _472
REMARK  192  A    between atoms: _472  and  _473
REMARK  193  A    between atoms: _472  and  _475
REMARK  194  A    between atoms: _475  and  _476
REMARK  195  A    between atoms: _479  and  _481
REMARK  196  A    between atoms: _481  and  _482
REMARK  197  A    between atoms: _481  and  _484
REMARK  198  A    between atoms: _484  and  _485
REMARK  199  A    between atoms: _488  and  _490
REMARK  200  A    between atoms: _490  and  _491
REMARK  201  A    between atoms: _493  and  _495
REMARK  202  A    between atoms: _495  and  _496
REMARK  203  A    between atoms: _495  and  _498
REMARK  204  A    between atoms: _498  and  _499
REMARK  205  A    between atoms: _499  and  _500
REMARK  206  A    between atoms: _500  and  _501
REMARK  207  A    between atoms: _510  and  _512
REMARK  208  A    between atoms: _512  and  _513
REMARK  209  A    between atoms: _512  and  _515
REMARK  210  A    between atoms: _515  and  _516
REMARK                            x       y       z     vdW  Elec       q    Type
REMARK                         _______ _______ _______ _____ _____    ______ ____
ROOT
ATOM      1  O   HOH     1       5.474   5.968  13.261  0.00  0.00    +0.000 OA
ENDROOT
TORSDOF 0
REMARK  Name = ../refined-set-2016/1d4l/1d4l_pocket.pdb
REMARK  210 active torsions:
REMARK  status: ('A' for Active; 'I' for Inactive)
REMARK    1  A    between atoms: _1  and  _3
REMARK    2  A    between atoms: _3  and  _4
REMARK    3  A    between atoms: _3  and  _6
REMARK    4  A    between atoms: _6  and  _7
REMARK    5  A    between atoms: _7  and  _8
REMARK    6  A    between atoms: _8  and  _9
REMARK    7  A    between atoms: _18  and  _20
REMARK    8  A    between atoms: _20  and  _21
REMARK    9  A    between atoms: _20  and  _23
REMARK   10  A    between atoms: _23  and  _24
REMARK   11  A    between atoms: _27  and  _29
REMARK   12  A    between atoms: _29  and  _30
REMARK   13  A    between atoms: _29  and  _32
REMARK   14  A    between atoms: _32  and  _33
REMARK   15  A    between atoms: _36  and  _38
REMARK   16  A    between atoms: _38  and  _39
REMARK   17  A    between atoms: _38  and  _41
REMARK   18  A    between atoms: _41  and  _42
REMARK   19  A    between atoms: _45  and  _47
REMARK   20  A    between atoms: _47  and  _48
REMARK   21  A    between atoms: _47  and  _50
REMARK   22  A    between atoms: _50  and  _51
REMARK   23  A    between atoms: _54  and  _56
REMARK   24  A    between atoms: _56  and  _57
REMARK   25  A    between atoms: _59  and  _61
REMARK   26  A    between atoms: _61  and  _62
REMARK   27  A    between atoms: _65  and  _67
REMARK   28  A    between atoms: _67  and  _68
REMARK   29  A    between atoms: _67  and  _70
REMARK   30  A    between atoms: _70  and  _71
REMARK   31  A    between atoms: _74  and  _76
REMARK   32  A    between atoms: _76  and  _77
REMARK   33  A    between atoms: _76  and  _79
REMARK   34  A    between atoms: _79  and  _80
REMARK   35  A    between atoms: _83  and  _85
REMARK   36  A    between atoms: _85  and  _86
REMARK   37  A    between atoms: _85  and  _88
REMARK   38  A    between atoms: _88  and  _89
REMARK   39  A    between atoms: _92  and  _94
REMARK   40  A    between atoms: _94  and  _95
REMARK   41  A    between atoms: _94  and  _97
REMARK   42  A    between atoms: _100  and  _102
REMARK   43  A    between atoms: _102  and  _103
REMARK   44  A    between atoms: _102  and  _105
REMARK   45  A    between atoms: _105  and  _106
REMARK   46  A    between atoms: _109  and  _111
REMARK   47  A    between atoms: _111  and  _112
REMARK   48  A    between atoms: _114  and  _116
REMARK   49  A    between atoms: _116  and  _117
REMARK   50  A    between atoms: _119  and  _121
REMARK   51  A    between atoms: _121  and  _122
REMARK   52  A    between atoms: _121  and  _124
REMARK   53  A    between atoms: _124  and  _125
REMARK   54  A    between atoms: _128  and  _130
REMARK   55  A    between atoms: _130  and  _131
REMARK   56  A    between atoms: _133  and  _135
REMARK   57  A    between atoms: _135  and  _136
REMARK   58  A    between atoms: _138  and  _140
REMARK   59  A    between atoms: _140  and  _141
REMARK   60  A    between atoms: _140  and  _143
REMARK   61  A    between atoms: _143  and  _144
REMARK   62  A    between atoms: _150  and  _152
REMARK   63  A    between atoms: _152  and  _153
REMARK   64  A    between atoms: _152  and  _155
REMARK   65  A    between atoms: _155  and  _156
REMARK   66  A    between atoms: _159  and  _161
REMARK   67  A    between atoms: _161  and  _162
REMARK   68  A    between atoms: _161  and  _164
REMARK   69  A    between atoms: _164  and  _165
REMARK   70  A    between atoms: _169  and  _170
REMARK   71  A    between atoms: _175  and  _177
REMARK   72  A    between atoms: _177  and  _178
REMARK   73  A    between atoms: _177  and  _180
REMARK   74  A    between atoms: _180  and  _181
REMARK   75  A    between atoms: _185  and  _186
REMARK   76  A    between atoms: _191  and  _193
REMARK   77  A    between atoms: _193  and  _194
REMARK   78  A    between atoms: _193  and  _196
REMARK   79  A    between atoms: _199  and  _201
REMARK   80  A    between atoms: _201  and  _202
REMARK   81  A    between atoms: _201  and  _204
REMARK   82  A    between atoms: _204  and  _205
REMARK   83  A    between atoms: _210  and  _212
REMARK   84  A    between atoms: _212  and  _213
REMARK   85  A    between atoms: _212  and  _215
REMARK   86  A    between atoms: _215  and  _216
REMARK   87  A    between atoms: _219  and  _221
REMARK   88  A    between atoms: _221  and  _222
REMARK   89  A    between atoms: _221  and  _224
REMARK   90  A    between atoms: _224  and  _225
REMARK   91  A    between atoms: _228  and  _230
REMARK   92  A    between atoms: _230  and  _231
REMARK   93  A    between atoms: _233  and  _235
REMARK   94  A    between atoms: _235  and  _236
REMARK   95  A    between atoms: _235  and  _238
REMARK   96  A    between atoms: _238  and  _239
REMARK   97  A    between atoms: _239  and  _240
REMARK   98  A    between atoms: _240  and  _241
REMARK   99  A    between atoms: _250  and  _252
REMARK  100  A    between atoms: _252  and  _253
REMARK  101  A    between atoms: _252  and  _255
REMARK  102  A    between atoms: _255  and  _256
REMARK  103  A    between atoms: _256  and  _257
REMARK  104  A    between atoms: _257  and  _258
REMARK  105  A    between atoms: _267  and  _269
REMARK  106  A    between atoms: _269  and  _270
REMARK  107  A    between atoms: _269  and  _272
REMARK  108  A    between atoms: _272  and  _273
REMARK  109  A    between atoms: _276  and  _278
REMARK  110  A    between atoms: _278  and  _279
REMARK  111  A    between atoms: _278  and  _281
REMARK  112  A    between atoms: _281  and  _282
REMARK  113  A    between atoms: _285  and  _287
REMARK  114  A    between atoms: _287  and  _288
REMARK  115  A    between atoms: _287  and  _290
REMARK  116  A    between atoms: _290  and  _291
REMARK  117  A    between atoms: _294  and  _296
REMARK  118  A    between atoms: _296  and  _297
REMARK  119  A    between atoms: _296  and  _299
REMARK  120  A    between atoms: _299  and  _300
REMARK  121  A    between atoms: _303  and  _305
REMARK  122  A    between atoms: _305  and  _306
REMARK  123  A    between atoms: _308  and  _310
REMARK  124  A    between atoms: _310  and  _311
REMARK  125  A    between atoms: _314  and  _316
REMARK  126  A    between atoms: _316  and  _317
REMARK  127  A    between atoms: _316  and  _319
REMARK  128  A    between atoms: _319  and  _320
REMARK  129  A    between atoms: _323  and  _325
REMARK  130  A    between atoms: _325  and  _326
REMARK  131  A    between atoms: _325  and  _328
REMARK  132  A    between atoms: _328  and  _329
REMARK  133  A    between atoms: _332  and  _334
REMARK  134  A    between atoms: _334  and  _335
REMARK  135  A    between atoms: _334  and  _337
REMARK  136  A    between atoms: _337  and  _338
REMARK  137  A    between atoms: _341  and  _343
REMARK  138  A    between atoms: _343  and  _344
REMARK  139  A    between atoms: _343  and  _346
REMARK  140  A    between atoms: _349  and  _351
REMARK  141  A    between atoms: _351  and  _352
REMARK  142  A    between atoms: _351  and  _354
REMARK  143  A    between atoms: _354  and  _355
REMARK  144  A    between atoms: _355  and  _356
REMARK  145  A    between atoms: _356  and  _357
REMARK  146  A    between atoms: _357  and  _358
REMARK  147  A    between atoms: _362  and  _364
REMARK  148  A    between atoms: _364  and  _365
REMARK  149  A    between atoms: _364  and  _367
REMARK  150  A    between atoms: _367  and  _368
REMARK  151  A    between atoms: _368  and  _369
REMARK  152  A    between atoms: _371  and  _373
REMARK  153  A    between atoms: _373  and  _374
REMARK  154  A    between atoms: _373  and  _376
REMARK  155  A    between atoms: _376  and  _377
REMARK  156  A    between atoms: _380  and  _382
REMARK  157  A    between atoms: _382  and  _383
REMARK  158  A    between atoms: _385  and  _387
REMARK  159  A    between atoms: _387  and  _388
REMARK  160  A    between atoms: _390  and  _392
REMARK  161  A    between atoms: _392  and  _393
REMARK  162  A    between atoms: _392  and  _395
REMARK  163  A    between atoms: _395  and  _396
REMARK  164  A    between atoms: _399  and  _401
REMARK  165  A    between atoms: _401  and  _402
REMARK  166  A    between atoms: _404  and  _406
REMARK  167  A    between atoms: _406  and  _407
REMARK  168  A    between atoms: _409  and  _411
REMARK  169  A    between atoms: _411  and  _412
REMARK  170  A    between atoms: _411  and  _414
REMARK  171  A    between atoms: _414  and  _415
REMARK  172  A    between atoms: _418  and  _420
REMARK  173  A    between atoms: _420  and  _421
REMARK  174  A    between atoms: _420  and  _423
REMARK  175  A    between atoms: _426  and  _428
REMARK  176  A    between atoms: _428  and  _429
REMARK  177  A    between atoms: _428  and  _431
REMARK  178  A    between atoms: _431  and  _432
REMARK  179  A    between atoms: _435  and  _437
REMARK  180  A    between atoms: _437  and  _438
REMARK  181  A    between atoms: _437  and  _440
REMARK  182  A    between atoms: _440  and  _441
REMARK  183  A    between atoms: _445  and  _446
REMARK  184  A    between atoms: _451  and  _453
REMARK  185  A    between atoms: _453  and  _454
REMARK  186  A    between atoms: _453  and  _456
REMARK  187  A    between atoms: _459  and  _461
REMARK  188  A    between atoms: _461  and  _462
REMARK  189  A    between atoms: _461  and  _464
REMARK  190  A    between atoms: _464  and  _465
REMARK  191  A    between atoms: _470  and  _472
REMARK  192  A    between atoms: _472  and  _473
REMARK  193  A    between atoms: _472  and  _475
REMARK  194  A    between atoms: _475  and  _476
REMARK  195  A    between atoms: _479  and  _481
REMARK  196  A    between atoms: _481  and  _482
REMARK  197  A    between atoms: _481  and  _484
REMARK  198  A    between atoms: _484  and  _485
REMARK  199  A    between atoms: _488  and  _490
REMARK  200  A    between atoms: _490  and  _491
REMARK  201  A    between atoms: _493  and  _495
REMARK  202  A    between atoms: _495  and  _496
REMARK  203  A    between atoms: _495  and  _498
REMARK  204  A    between atoms: _498  and  _499
REMARK  205  A    between atoms: _499  and  _500
REMARK  206  A    between atoms: _500  and  _501
REMARK  207  A    between atoms: _510  and  _512
REMARK  208  A    between atoms: _512  and  _513
REMARK  209  A    between atoms: _512  and  _515
REMARK  210  A    between atoms: _515  and  _516
REMARK                            x       y       z     vdW  Elec       q    Type
REMARK                         _______ _______ _______ _____ _____    ______ ____
ROOT
ATOM      1  O   HOH     1       4.845  -9.231  20.929  0.00  0.00    +0.000 OA
ENDROOT
TORSDOF 0
REMARK  Name = ../refined-set-2016/1d4l/1d4l_pocket.pdb
REMARK  210 active torsions:
REMARK  status: ('A' for Active; 'I' for Inactive)
REMARK    1  A    between atoms: _1  and  _3
REMARK    2  A    between atoms: _3  and  _4
REMARK    3  A    between atoms: _3  and  _6
REMARK    4  A    between atoms: _6  and  _7
REMARK    5  A    between atoms: _7  and  _8
REMARK    6  A    between atoms: _8  and  _9
REMARK    7  A    between atoms: _18  and  _20
REMARK    8  A    between atoms: _20  and  _21
REMARK    9  A    between atoms: _20  and  _23
REMARK   10  A    between atoms: _23  and  _24
REMARK   11  A    between atoms: _27  and  _29
REMARK   12  A    between atoms: _29  and  _30
REMARK   13  A    between atoms: _29  and  _32
REMARK   14  A    between atoms: _32  and  _33
REMARK   15  A    between atoms: _36  and  _38
REMARK   16  A    between atoms: _38  and  _39
REMARK   17  A    between atoms: _38  and  _41
REMARK   18  A    between atoms: _41  and  _42
REMARK   19  A    between atoms: _45  and  _47
REMARK   20  A    between atoms: _47  and  _48
REMARK   21  A    between atoms: _47  and  _50
REMARK   22  A    between atoms: _50  and  _51
REMARK   23  A    between atoms: _54  and  _56
REMARK   24  A    between atoms: _56  and  _57
REMARK   25  A    between atoms: _59  and  _61
REMARK   26  A    between atoms: _61  and  _62
REMARK   27  A    between atoms: _65  and  _67
REMARK   28  A    between atoms: _67  and  _68
REMARK   29  A    between atoms: _67  and  _70
REMARK   30  A    between atoms: _70  and  _71
REMARK   31  A    between atoms: _74  and  _76
REMARK   32  A    between atoms: _76  and  _77
REMARK   33  A    between atoms: _76  and  _79
REMARK   34  A    between atoms: _79  and  _80
REMARK   35  A    between atoms: _83  and  _85
REMARK   36  A    between atoms: _85  and  _86
REMARK   37  A    between atoms: _85  and  _88
REMARK   38  A    between atoms: _88  and  _89
REMARK   39  A    between atoms: _92  and  _94
REMARK   40  A    between atoms: _94  and  _95
REMARK   41  A    between atoms: _94  and  _97
REMARK   42  A    between atoms: _100  and  _102
REMARK   43  A    between atoms: _102  and  _103
REMARK   44  A    between atoms: _102  and  _105
REMARK   45  A    between atoms: _105  and  _106
REMARK   46  A    between atoms: _109  and  _111
REMARK   47  A    between atoms: _111  and  _112
REMARK   48  A    between atoms: _114  and  _116
REMARK   49  A    between atoms: _116  and  _117
REMARK   50  A    between atoms: _119  and  _121
REMARK   51  A    between atoms: _121  and  _122
REMARK   52  A    between atoms: _121  and  _124
REMARK   53  A    between atoms: _124  and  _125
REMARK   54  A    between atoms: _128  and  _130
REMARK   55  A    between atoms: _130  and  _131
REMARK   56  A    between atoms: _133  and  _135
REMARK   57  A    between atoms: _135  and  _136
REMARK   58  A    between atoms: _138  and  _140
REMARK   59  A    between atoms: _140  and  _141
REMARK   60  A    between atoms: _140  and  _143
REMARK   61  A    between atoms: _143  and  _144
REMARK   62  A    between atoms: _150  and  _152
REMARK   63  A    between atoms: _152  and  _153
REMARK   64  A    between atoms: _152  and  _155
REMARK   65  A    between atoms: _155  and  _156
REMARK   66  A    between atoms: _159  and  _161
REMARK   67  A    between atoms: _161  and  _162
REMARK   68  A    between atoms: _161  and  _164
REMARK   69  A    between atoms: _164  and  _165
REMARK   70  A    between atoms: _169  and  _170
REMARK   71  A    between atoms: _175  and  _177
REMARK   72  A    between atoms: _177  and  _178
REMARK   73  A    between atoms: _177  and  _180
REMARK   74  A    between atoms: _180  and  _181
REMARK   75  A    between atoms: _185  and  _186
REMARK   76  A    between atoms: _191  and  _193
REMARK   77  A    between atoms: _193  and  _194
REMARK   78  A    between atoms: _193  and  _196
REMARK   79  A    between atoms: _199  and  _201
REMARK   80  A    between atoms: _201  and  _202
REMARK   81  A    between atoms: _201  and  _204
REMARK   82  A    between atoms: _204  and  _205
REMARK   83  A    between atoms: _210  and  _212
REMARK   84  A    between atoms: _212  and  _213
REMARK   85  A    between atoms: _212  and  _215
REMARK   86  A    between atoms: _215  and  _216
REMARK   87  A    between atoms: _219  and  _221
REMARK   88  A    between atoms: _221  and  _222
REMARK   89  A    between atoms: _221  and  _224
REMARK   90  A    between atoms: _224  and  _225
REMARK   91  A    between atoms: _228  and  _230
REMARK   92  A    between atoms: _230  and  _231
REMARK   93  A    between atoms: _233  and  _235
REMARK   94  A    between atoms: _235  and  _236
REMARK   95  A    between atoms: _235  and  _238
REMARK   96  A    between atoms: _238  and  _239
REMARK   97  A    between atoms: _239  and  _240
REMARK   98  A    between atoms: _240  and  _241
REMARK   99  A    between atoms: _250  and  _252
REMARK  100  A    between atoms: _252  and  _253
REMARK  101  A    between atoms: _252  and  _255
REMARK  102  A    between atoms: _255  and  _256
REMARK  103  A    between atoms: _256  and  _257
REMARK  104  A    between atoms: _257  and  _258
REMARK  105  A    between atoms: _267  and  _269
REMARK  106  A    between atoms: _269  and  _270
REMARK  107  A    between atoms: _269  and  _272
REMARK  108  A    between atoms: _272  and  _273
REMARK  109  A    between atoms: _276  and  _278
REMARK  110  A    between atoms: _278  and  _279
REMARK  111  A    between atoms: _278  and  _281
REMARK  112  A    between atoms: _281  and  _282
REMARK  113  A    between atoms: _285  and  _287
REMARK  114  A    between atoms: _287  and  _288
REMARK  115  A    between atoms: _287  and  _290
REMARK  116  A    between atoms: _290  and  _291
REMARK  117  A    between atoms: _294  and  _296
REMARK  118  A    between atoms: _296  and  _297
REMARK  119  A    between atoms: _296  and  _299
REMARK  120  A    between atoms: _299  and  _300
REMARK  121  A    between atoms: _303  and  _305
REMARK  122  A    between atoms: _305  and  _306
REMARK  123  A    between atoms: _308  and  _310
REMARK  124  A    between atoms: _310  and  _311
REMARK  125  A    between atoms: _314  and  _316
REMARK  126  A    between atoms: _316  and  _317
REMARK  127  A    between atoms: _316  and  _319
REMARK  128  A    between atoms: _319  and  _320
REMARK  129  A    between atoms: _323  and  _325
REMARK  130  A    between atoms: _325  and  _326
REMARK  131  A    between atoms: _325  and  _328
REMARK  132  A    between atoms: _328  and  _329
REMARK  133  A    between atoms: _332  and  _334
REMARK  134  A    between atoms: _334  and  _335
REMARK  135  A    between atoms: _334  and  _337
REMARK  136  A    between atoms: _337  and  _338
REMARK  137  A    between atoms: _341  and  _343
REMARK  138  A    between atoms: _343  and  _344
REMARK  139  A    between atoms: _343  and  _346
REMARK  140  A    between atoms: _349  and  _351
REMARK  141  A    between atoms: _351  and  _352
REMARK  142  A    between atoms: _351  and  _354
REMARK  143  A    between atoms: _354  and  _355
REMARK  144  A    between atoms: _355  and  _356
REMARK  145  A    between atoms: _356  and  _357
REMARK  146  A    between atoms: _357  and  _358
REMARK  147  A    between atoms: _362  and  _364
REMARK  148  A    between atoms: _364  and  _365
REMARK  149  A    between atoms: _364  and  _367
REMARK  150  A    between atoms: _367  and  _368
REMARK  151  A    between atoms: _368  and  _369
REMARK  152  A    between atoms: _371  and  _373
REMARK  153  A    between atoms: _373  and  _374
REMARK  154  A    between atoms: _373  and  _376
REMARK  155  A    between atoms: _376  and  _377
REMARK  156  A    between atoms: _380  and  _382
REMARK  157  A    between atoms: _382  and  _383
REMARK  158  A    between atoms: _385  and  _387
REMARK  159  A    between atoms: _387  and  _388
REMARK  160  A    between atoms: _390  and  _392
REMARK  161  A    between atoms: _392  and  _393
REMARK  162  A    between atoms: _392  and  _395
REMARK  163  A    between atoms: _395  and  _396
REMARK  164  A    between atoms: _399  and  _401
REMARK  165  A    between atoms: _401  and  _402
REMARK  166  A    between atoms: _404  and  _406
REMARK  167  A    between atoms: _406  and  _407
REMARK  168  A    between atoms: _409  and  _411
REMARK  169  A    between atoms: _411  and  _412
REMARK  170  A    between atoms: _411  and  _414
REMARK  171  A    between atoms: _414  and  _415
REMARK  172  A    between atoms: _418  and  _420
REMARK  173  A    between atoms: _420  and  _421
REMARK  174  A    between atoms: _420  and  _423
REMARK  175  A    between atoms: _426  and  _428
REMARK  176  A    between atoms: _428  and  _429
REMARK  177  A    between atoms: _428  and  _431
REMARK  178  A    between atoms: _431  and  _432
REMARK  179  A    between atoms: _435  and  _437
REMARK  180  A    between atoms: _437  and  _438
REMARK  181  A    between atoms: _437  and  _440
REMARK  182  A    between atoms: _440  and  _441
REMARK  183  A    between atoms: _445  and  _446
REMARK  184  A    between atoms: _451  and  _453
REMARK  185  A    between atoms: _453  and  _454
REMARK  186  A    between atoms: _453  and  _456
REMARK  187  A    between atoms: _459  and  _461
REMARK  188  A    between atoms: _461  and  _462
REMARK  189  A    between atoms: _461  and  _464
REMARK  190  A    between atoms: _464  and  _465
REMARK  191  A    between atoms: _470  and  _472
REMARK  192  A    between atoms: _472  and  _473
REMARK  193  A    between atoms: _472  and  _475
REMARK  194  A    between atoms: _475  and  _476
REMARK  195  A    between atoms: _479  and  _481
REMARK  196  A    between atoms: _481  and  _482
REMARK  197  A    between atoms: _481  and  _484
REMARK  198  A    between atoms: _484  and  _485
REMARK  199  A    between atoms: _488  and  _490
REMARK  200  A    between atoms: _490  and  _491
REMARK  201  A    between atoms: _493  and  _495
REMARK  202  A    between atoms: _495  and  _496
REMARK  203  A    between atoms: _495  and  _498
REMARK  204  A    between atoms: _498  and  _499
REMARK  205  A    between atoms: _499  and  _500
REMARK  206  A    between atoms: _500  and  _501
REMARK  207  A    between atoms: _510  and  _512
REMARK  208  A    between atoms: _512  and  _513
REMARK  209  A    between atoms: _512  and  _515
REMARK  210  A    between atoms: _515  and  _516
REMARK                            x       y       z     vdW  Elec       q    Type
REMARK                         _______ _______ _______ _____ _____    ______ ____
ROOT
ATOM      1  O   HOH     1       1.528   7.618   8.057  0.00  0.00    +0.000 OA
ENDROOT
TORSDOF 0
REMARK  Name = ../refined-set-2016/1d4l/1d4l_pocket.pdb
REMARK  210 active torsions:
REMARK  status: ('A' for Active; 'I' for Inactive)
REMARK    1  A    between atoms: _1  and  _3
REMARK    2  A    between atoms: _3  and  _4
REMARK    3  A    between atoms: _3  and  _6
REMARK    4  A    between atoms: _6  and  _7
REMARK    5  A    between atoms: _7  and  _8
REMARK    6  A    between atoms: _8  and  _9
REMARK    7  A    between atoms: _18  and  _20
REMARK    8  A    between atoms: _20  and  _21
REMARK    9  A    between atoms: _20  and  _23
REMARK   10  A    between atoms: _23  and  _24
REMARK   11  A    between atoms: _27  and  _29
REMARK   12  A    between atoms: _29  and  _30
REMARK   13  A    between atoms: _29  and  _32
REMARK   14  A    between atoms: _32  and  _33
REMARK   15  A    between atoms: _36  and  _38
REMARK   16  A    between atoms: _38  and  _39
REMARK   17  A    between atoms: _38  and  _41
REMARK   18  A    between atoms: _41  and  _42
REMARK   19  A    between atoms: _45  and  _47
REMARK   20  A    between atoms: _47  and  _48
REMARK   21  A    between atoms: _47  and  _50
REMARK   22  A    between atoms: _50  and  _51
REMARK   23  A    between atoms: _54  and  _56
REMARK   24  A    between atoms: _56  and  _57
REMARK   25  A    between atoms: _59  and  _61
REMARK   26  A    between atoms: _61  and  _62
REMARK   27  A    between atoms: _65  and  _67
REMARK   28  A    between atoms: _67  and  _68
REMARK   29  A    between atoms: _67  and  _70
REMARK   30  A    between atoms: _70  and  _71
REMARK   31  A    between atoms: _74  and  _76
REMARK   32  A    between atoms: _76  and  _77
REMARK   33  A    between atoms: _76  and  _79
REMARK   34  A    between atoms: _79  and  _80
REMARK   35  A    between atoms: _83  and  _85
REMARK   36  A    between atoms: _85  and  _86
REMARK   37  A    between atoms: _85  and  _88
REMARK   38  A    between atoms: _88  and  _89
REMARK   39  A    between atoms: _92  and  _94
REMARK   40  A    between atoms: _94  and  _95
REMARK   41  A    between atoms: _94  and  _97
REMARK   42  A    between atoms: _100  and  _102
REMARK   43  A    between atoms: _102  and  _103
REMARK   44  A    between atoms: _102  and  _105
REMARK   45  A    between atoms: _105  and  _106
REMARK   46  A    between atoms: _109  and  _111
REMARK   47  A    between atoms: _111  and  _112
REMARK   48  A    between atoms: _114  and  _116
REMARK   49  A    between atoms: _116  and  _117
REMARK   50  A    between atoms: _119  and  _121
REMARK   51  A    between atoms: _121  and  _122
REMARK   52  A    between atoms: _121  and  _124
REMARK   53  A    between atoms: _124  and  _125
REMARK   54  A    between atoms: _128  and  _130
REMARK   55  A    between atoms: _130  and  _131
REMARK   56  A    between atoms: _133  and  _135
REMARK   57  A    between atoms: _135  and  _136
REMARK   58  A    between atoms: _138  and  _140
REMARK   59  A    between atoms: _140  and  _141
REMARK   60  A    between atoms: _140  and  _143
REMARK   61  A    between atoms: _143  and  _144
REMARK   62  A    between atoms: _150  and  _152
REMARK   63  A    between atoms: _152  and  _153
REMARK   64  A    between atoms: _152  and  _155
REMARK   65  A    between atoms: _155  and  _156
REMARK   66  A    between atoms: _159  and  _161
REMARK   67  A    between atoms: _161  and  _162
REMARK   68  A    between atoms: _161  and  _164
REMARK   69  A    between atoms: _164  and  _165
REMARK   70  A    between atoms: _169  and  _170
REMARK   71  A    between atoms: _175  and  _177
REMARK   72  A    between atoms: _177  and  _178
REMARK   73  A    between atoms: _177  and  _180
REMARK   74  A    between atoms: _180  and  _181
REMARK   75  A    between atoms: _185  and  _186
REMARK   76  A    between atoms: _191  and  _193
REMARK   77  A    between atoms: _193  and  _194
REMARK   78  A    between atoms: _193  and  _196
REMARK   79  A    between atoms: _199  and  _201
REMARK   80  A    between atoms: _201  and  _202
REMARK   81  A    between atoms: _201  and  _204
REMARK   82  A    between atoms: _204  and  _205
REMARK   83  A    between atoms: _210  and  _212
REMARK   84  A    between atoms: _212  and  _213
REMARK   85  A    between atoms: _212  and  _215
REMARK   86  A    between atoms: _215  and  _216
REMARK   87  A    between atoms: _219  and  _221
REMARK   88  A    between atoms: _221  and  _222
REMARK   89  A    between atoms: _221  and  _224
REMARK   90  A    between atoms: _224  and  _225
REMARK   91  A    between atoms: _228  and  _230
REMARK   92  A    between atoms: _230  and  _231
REMARK   93  A    between atoms: _233  and  _235
REMARK   94  A    between atoms: _235  and  _236
REMARK   95  A    between atoms: _235  and  _238
REMARK   96  A    between atoms: _238  and  _239
REMARK   97  A    between atoms: _239  and  _240
REMARK   98  A    between atoms: _240  and  _241
REMARK   99  A    between atoms: _250  and  _252
REMARK  100  A    between atoms: _252  and  _253
REMARK  101  A    between atoms: _252  and  _255
REMARK  102  A    between atoms: _255  and  _256
REMARK  103  A    between atoms: _256  and  _257
REMARK  104  A    between atoms: _257  and  _258
REMARK  105  A    between atoms: _267  and  _269
REMARK  106  A    between atoms: _269  and  _270
REMARK  107  A    between atoms: _269  and  _272
REMARK  108  A    between atoms: _272  and  _273
REMARK  109  A    between atoms: _276  and  _278
REMARK  110  A    between atoms: _278  and  _279
REMARK  111  A    between atoms: _278  and  _281
REMARK  112  A    between atoms: _281  and  _282
REMARK  113  A    between atoms: _285  and  _287
REMARK  114  A    between atoms: _287  and  _288
REMARK  115  A    between atoms: _287  and  _290
REMARK  116  A    between atoms: _290  and  _291
REMARK  117  A    between atoms: _294  and  _296
REMARK  118  A    between atoms: _296  and  _297
REMARK  119  A    between atoms: _296  and  _299
REMARK  120  A    between atoms: _299  and  _300
REMARK  121  A    between atoms: _303  and  _305
REMARK  122  A    between atoms: _305  and  _306
REMARK  123  A    between atoms: _308  and  _310
REMARK  124  A    between atoms: _310  and  _311
REMARK  125  A    between atoms: _314  and  _316
REMARK  126  A    between atoms: _316  and  _317
REMARK  127  A    between atoms: _316  and  _319
REMARK  128  A    between atoms: _319  and  _320
REMARK  129  A    between atoms: _323  and  _325
REMARK  130  A    between atoms: _325  and  _326
REMARK  131  A    between atoms: _325  and  _328
REMARK  132  A    between atoms: _328  and  _329
REMARK  133  A    between atoms: _332  and  _334
REMARK  134  A    between atoms: _334  and  _335
REMARK  135  A    between atoms: _334  and  _337
REMARK  136  A    between atoms: _337  and  _338
REMARK  137  A    between atoms: _341  and  _343
REMARK  138  A    between atoms: _343  and  _344
REMARK  139  A    between atoms: _343  and  _346
REMARK  140  A    between atoms: _349  and  _351
REMARK  141  A    between atoms: _351  and  _352
REMARK  142  A    between atoms: _351  and  _354
REMARK  143  A    between atoms: _354  and  _355
REMARK  144  A    between atoms: _355  and  _356
REMARK  145  A    between atoms: _356  and  _357
REMARK  146  A    between atoms: _357  and  _358
REMARK  147  A    between atoms: _362  and  _364
REMARK  148  A    between atoms: _364  and  _365
REMARK  149  A    between atoms: _364  and  _367
REMARK  150  A    between atoms: _367  and  _368
REMARK  151  A    between atoms: _368  and  _369
REMARK  152  A    between atoms: _371  and  _373
REMARK  153  A    between atoms: _373  and  _374
REMARK  154  A    between atoms: _373  and  _376
REMARK  155  A    between atoms: _376  and  _377
REMARK  156  A    between atoms: _380  and  _382
REMARK  157  A    between atoms: _382  and  _383
REMARK  158  A    between atoms: _385  and  _387
REMARK  159  A    between atoms: _387  and  _388
REMARK  160  A    between atoms: _390  and  _392
REMARK  161  A    between atoms: _392  and  _393
REMARK  162  A    between atoms: _392  and  _395
REMARK  163  A    between atoms: _395  and  _396
REMARK  164  A    between atoms: _399  and  _401
REMARK  165  A    between atoms: _401  and  _402
REMARK  166  A    between atoms: _404  and  _406
REMARK  167  A    between atoms: _406  and  _407
REMARK  168  A    between atoms: _409  and  _411
REMARK  169  A    between atoms: _411  and  _412
REMARK  170  A    between atoms: _411  and  _414
REMARK  171  A    between atoms: _414  and  _415
REMARK  172  A    between atoms: _418  and  _420
REMARK  173  A    between atoms: _420  and  _421
REMARK  174  A    between atoms: _420  and  _423
REMARK  175  A    between atoms: _426  and  _428
REMARK  176  A    between atoms: _428  and  _429
REMARK  177  A    between atoms: _428  and  _431
REMARK  178  A    between atoms: _431  and  _432
REMARK  179  A    between atoms: _435  and  _437
REMARK  180  A    between atoms: _437  and  _438
REMARK  181  A    between atoms: _437  and  _440
REMARK  182  A    between atoms: _440  and  _441
REMARK  183  A    between atoms: _445  and  _446
REMARK  184  A    between atoms: _451  and  _453
REMARK  185  A    between atoms: _453  and  _454
REMARK  186  A    between atoms: _453  and  _456
REMARK  187  A    between atoms: _459  and  _461
REMARK  188  A    between atoms: _461  and  _462
REMARK  189  A    between atoms: _461  and  _464
REMARK  190  A    between atoms: _464  and  _465
REMARK  191  A    between atoms: _470  and  _472
REMARK  192  A    between atoms: _472  and  _473
REMARK  193  A    between atoms: _472  and  _475
REMARK  194  A    between atoms: _475  and  _476
REMARK  195  A    between atoms: _479  and  _481
REMARK  196  A    between atoms: _481  and  _482
REMARK  197  A    between atoms: _481  and  _484
REMARK  198  A    between atoms: _484  and  _485
REMARK  199  A    between atoms: _488  and  _490
REMARK  200  A    between atoms: _490  and  _491
REMARK  201  A    between atoms: _493  and  _495
REMARK  202  A    between atoms: _495  and  _496
REMARK  203  A    between atoms: _495  and  _498
REMARK  204  A    between atoms: _498  and  _499
REMARK  205  A    between atoms: _499  and  _500
REMARK  206  A    between atoms: _500  and  _501
REMARK  207  A    between atoms: _510  and  _512
REMARK  208  A    between atoms: _512  and  _513
REMARK  209  A    between atoms: _512  and  _515
REMARK  210  A    between atoms: _515  and  _516
REMARK                            x       y       z     vdW  Elec       q    Type
REMARK                         _______ _______ _______ _____ _____    ______ ____
ROOT
ATOM      1  O   HOH     1       5.539  -3.522  23.231  0.00  0.00    +0.000 OA
ENDROOT
TORSDOF 0
REMARK  Name = ../refined-set-2016/1d4l/1d4l_pocket.pdb
REMARK  210 active torsions:
REMARK  status: ('A' for Active; 'I' for Inactive)
REMARK    1  A    between atoms: _1  and  _3
REMARK    2  A    between atoms: _3  and  _4
REMARK    3  A    between atoms: _3  and  _6
REMARK    4  A    between atoms: _6  and  _7
REMARK    5  A    between atoms: _7  and  _8
REMARK    6  A    between atoms: _8  and  _9
REMARK    7  A    between atoms: _18  and  _20
REMARK    8  A    between atoms: _20  and  _21
REMARK    9  A    between atoms: _20  and  _23
REMARK   10  A    between atoms: _23  and  _24
REMARK   11  A    between atoms: _27  and  _29
REMARK   12  A    between atoms: _29  and  _30
REMARK   13  A    between atoms: _29  and  _32
REMARK   14  A    between atoms: _32  and  _33
REMARK   15  A    between atoms: _36  and  _38
REMARK   16  A    between atoms: _38  and  _39
REMARK   17  A    between atoms: _38  and  _41
REMARK   18  A    between atoms: _41  and  _42
REMARK   19  A    between atoms: _45  and  _47
REMARK   20  A    between atoms: _47  and  _48
REMARK   21  A    between atoms: _47  and  _50
REMARK   22  A    between atoms: _50  and  _51
REMARK   23  A    between atoms: _54  and  _56
REMARK   24  A    between atoms: _56  and  _57
REMARK   25  A    between atoms: _59  and  _61
REMARK   26  A    between atoms: _61  and  _62
REMARK   27  A    between atoms: _65  and  _67
REMARK   28  A    between atoms: _67  and  _68
REMARK   29  A    between atoms: _67  and  _70
REMARK   30  A    between atoms: _70  and  _71
REMARK   31  A    between atoms: _74  and  _76
REMARK   32  A    between atoms: _76  and  _77
REMARK   33  A    between atoms: _76  and  _79
REMARK   34  A    between atoms: _79  and  _80
REMARK   35  A    between atoms: _83  and  _85
REMARK   36  A    between atoms: _85  and  _86
REMARK   37  A    between atoms: _85  and  _88
REMARK   38  A    between atoms: _88  and  _89
REMARK   39  A    between atoms: _92  and  _94
REMARK   40  A    between atoms: _94  and  _95
REMARK   41  A    between atoms: _94  and  _97
REMARK   42  A    between atoms: _100  and  _102
REMARK   43  A    between atoms: _102  and  _103
REMARK   44  A    between atoms: _102  and  _105
REMARK   45  A    between atoms: _105  and  _106
REMARK   46  A    between atoms: _109  and  _111
REMARK   47  A    between atoms: _111  and  _112
REMARK   48  A    between atoms: _114  and  _116
REMARK   49  A    between atoms: _116  and  _117
REMARK   50  A    between atoms: _119  and  _121
REMARK   51  A    between atoms: _121  and  _122
REMARK   52  A    between atoms: _121  and  _124
REMARK   53  A    between atoms: _124  and  _125
REMARK   54  A    between atoms: _128  and  _130
REMARK   55  A    between atoms: _130  and  _131
REMARK   56  A    between atoms: _133  and  _135
REMARK   57  A    between atoms: _135  and  _136
REMARK   58  A    between atoms: _138  and  _140
REMARK   59  A    between atoms: _140  and  _141
REMARK   60  A    between atoms: _140  and  _143
REMARK   61  A    between atoms: _143  and  _144
REMARK   62  A    between atoms: _150  and  _152
REMARK   63  A    between atoms: _152  and  _153
REMARK   64  A    between atoms: _152  and  _155
REMARK   65  A    between atoms: _155  and  _156
REMARK   66  A    between atoms: _159  and  _161
REMARK   67  A    between atoms: _161  and  _162
REMARK   68  A    between atoms: _161  and  _164
REMARK   69  A    between atoms: _164  and  _165
REMARK   70  A    between atoms: _169  and  _170
REMARK   71  A    between atoms: _175  and  _177
REMARK   72  A    between atoms: _177  and  _178
REMARK   73  A    between atoms: _177  and  _180
REMARK   74  A    between atoms: _180  and  _181
REMARK   75  A    between atoms: _185  and  _186
REMARK   76  A    between atoms: _191  and  _193
REMARK   77  A    between atoms: _193  and  _194
REMARK   78  A    between atoms: _193  and  _196
REMARK   79  A    between atoms: _199  and  _201
REMARK   80  A    between atoms: _201  and  _202
REMARK   81  A    between atoms: _201  and  _204
REMARK   82  A    between atoms: _204  and  _205
REMARK   83  A    between atoms: _210  and  _212
REMARK   84  A    between atoms: _212  and  _213
REMARK   85  A    between atoms: _212  and  _215
REMARK   86  A    between atoms: _215  and  _216
REMARK   87  A    between atoms: _219  and  _221
REMARK   88  A    between atoms: _221  and  _222
REMARK   89  A    between atoms: _221  and  _224
REMARK   90  A    between atoms: _224  and  _225
REMARK   91  A    between atoms: _228  and  _230
REMARK   92  A    between atoms: _230  and  _231
REMARK   93  A    between atoms: _233  and  _235
REMARK   94  A    between atoms: _235  and  _236
REMARK   95  A    between atoms: _235  and  _238
REMARK   96  A    between atoms: _238  and  _239
REMARK   97  A    between atoms: _239  and  _240
REMARK   98  A    between atoms: _240  and  _241
REMARK   99  A    between atoms: _250  and  _252
REMARK  100  A    between atoms: _252  and  _253
REMARK  101  A    between atoms: _252  and  _255
REMARK  102  A    between atoms: _255  and  _256
REMARK  103  A    between atoms: _256  and  _257
REMARK  104  A    between atoms: _257  and  _258
REMARK  105  A    between atoms: _267  and  _269
REMARK  106  A    between atoms: _269  and  _270
REMARK  107  A    between atoms: _269  and  _272
REMARK  108  A    between atoms: _272  and  _273
REMARK  109  A    between atoms: _276  and  _278
REMARK  110  A    between atoms: _278  and  _279
REMARK  111  A    between atoms: _278  and  _281
REMARK  112  A    between atoms: _281  and  _282
REMARK  113  A    between atoms: _285  and  _287
REMARK  114  A    between atoms: _287  and  _288
REMARK  115  A    between atoms: _287  and  _290
REMARK  116  A    between atoms: _290  and  _291
REMARK  117  A    between atoms: _294  and  _296
REMARK  118  A    between atoms: _296  and  _297
REMARK  119  A    between atoms: _296  and  _299
REMARK  120  A    between atoms: _299  and  _300
REMARK  121  A    between atoms: _303  and  _305
REMARK  122  A    between atoms: _305  and  _306
REMARK  123  A    between atoms: _308  and  _310
REMARK  124  A    between atoms: _310  and  _311
REMARK  125  A    between atoms: _314  and  _316
REMARK  126  A    between atoms: _316  and  _317
REMARK  127  A    between atoms: _316  and  _319
REMARK  128  A    between atoms: _319  and  _320
REMARK  129  A    between atoms: _323  and  _325
REMARK  130  A    between atoms: _325  and  _326
REMARK  131  A    between atoms: _325  and  _328
REMARK  132  A    between atoms: _328  and  _329
REMARK  133  A    between atoms: _332  and  _334
REMARK  134  A    between atoms: _334  and  _335
REMARK  135  A    between atoms: _334  and  _337
REMARK  136  A    between atoms: _337  and  _338
REMARK  137  A    between atoms: _341  and  _343
REMARK  138  A    between atoms: _343  and  _344
REMARK  139  A    between atoms: _343  and  _346
REMARK  140  A    between atoms: _349  and  _351
REMARK  141  A    between atoms: _351  and  _352
REMARK  142  A    between atoms: _351  and  _354
REMARK  143  A    between atoms: _354  and  _355
REMARK  144  A    between atoms: _355  and  _356
REMARK  145  A    between atoms: _356  and  _357
REMARK  146  A    between atoms: _357  and  _358
REMARK  147  A    between atoms: _362  and  _364
REMARK  148  A    between atoms: _364  and  _365
REMARK  149  A    between atoms: _364  and  _367
REMARK  150  A    between atoms: _367  and  _368
REMARK  151  A    between atoms: _368  and  _369
REMARK  152  A    between atoms: _371  and  _373
REMARK  153  A    between atoms: _373  and  _374
REMARK  154  A    between atoms: _373  and  _376
REMARK  155  A    between atoms: _376  and  _377
REMARK  156  A    between atoms: _380  and  _382
REMARK  157  A    between atoms: _382  and  _383
REMARK  158  A    between atoms: _385  and  _387
REMARK  159  A    between atoms: _387  and  _388
REMARK  160  A    between atoms: _390  and  _392
REMARK  161  A    between atoms: _392  and  _393
REMARK  162  A    between atoms: _392  and  _395
REMARK  163  A    between atoms: _395  and  _396
REMARK  164  A    between atoms: _399  and  _401
REMARK  165  A    between atoms: _401  and  _402
REMARK  166  A    between atoms: _404  and  _406
REMARK  167  A    between atoms: _406  and  _407
REMARK  168  A    between atoms: _409  and  _411
REMARK  169  A    between atoms: _411  and  _412
REMARK  170  A    between atoms: _411  and  _414
REMARK  171  A    between atoms: _414  and  _415
REMARK  172  A    between atoms: _418  and  _420
REMARK  173  A    between atoms: _420  and  _421
REMARK  174  A    between atoms: _420  and  _423
REMARK  175  A    between atoms: _426  and  _428
REMARK  176  A    between atoms: _428  and  _429
REMARK  177  A    between atoms: _428  and  _431
REMARK  178  A    between atoms: _431  and  _432
REMARK  179  A    between atoms: _435  and  _437
REMARK  180  A    between atoms: _437  and  _438
REMARK  181  A    between atoms: _437  and  _440
REMARK  182  A    between atoms: _440  and  _441
REMARK  183  A    between atoms: _445  and  _446
REMARK  184  A    between atoms: _451  and  _453
REMARK  185  A    between atoms: _453  and  _454
REMARK  186  A    between atoms: _453  and  _456
REMARK  187  A    between atoms: _459  and  _461
REMARK  188  A    between atoms: _461  and  _462
REMARK  189  A    between atoms: _461  and  _464
REMARK  190  A    between atoms: _464  and  _465
REMARK  191  A    between atoms: _470  and  _472
REMARK  192  A    between atoms: _472  and  _473
REMARK  193  A    between atoms: _472  and  _475
REMARK  194  A    between atoms: _475  and  _476
REMARK  195  A    between atoms: _479  and  _481
REMARK  196  A    between atoms: _481  and  _482
REMARK  197  A    between atoms: _481  and  _484
REMARK  198  A    between atoms: _484  and  _485
REMARK  199  A    between atoms: _488  and  _490
REMARK  200  A    between atoms: _490  and  _491
REMARK  201  A    between atoms: _493  and  _495
REMARK  202  A    between atoms: _495  and  _496
REMARK  203  A    between atoms: _495  and  _498
REMARK  204  A    between atoms: _498  and  _499
REMARK  205  A    between atoms: _499  and  _500
REMARK  206  A    between atoms: _500  and  _501
REMARK  207  A    between atoms: _510  and  _512
REMARK  208  A    between atoms: _512  and  _513
REMARK  209  A    between atoms: _512  and  _515
REMARK  210  A    between atoms: _515  and  _516
REMARK                            x       y       z     vdW  Elec       q    Type
REMARK                         _______ _______ _______ _____ _____    ______ ____
ROOT
ATOM      1  O   HOH     1      11.021  -6.103  26.048  0.00  0.00    +0.000 OA
ENDROOT
TORSDOF 0
REMARK  Name = ../refined-set-2016/1d4l/1d4l_pocket.pdb
REMARK  210 active torsions:
REMARK  status: ('A' for Active; 'I' for Inactive)
REMARK    1  A    between atoms: _1  and  _3
REMARK    2  A    between atoms: _3  and  _4
REMARK    3  A    between atoms: _3  and  _6
REMARK    4  A    between atoms: _6  and  _7
REMARK    5  A    between atoms: _7  and  _8
REMARK    6  A    between atoms: _8  and  _9
REMARK    7  A    between atoms: _18  and  _20
REMARK    8  A    between atoms: _20  and  _21
REMARK    9  A    between atoms: _20  and  _23
REMARK   10  A    between atoms: _23  and  _24
REMARK   11  A    between atoms: _27  and  _29
REMARK   12  A    between atoms: _29  and  _30
REMARK   13  A    between atoms: _29  and  _32
REMARK   14  A    between atoms: _32  and  _33
REMARK   15  A    between atoms: _36  and  _38
REMARK   16  A    between atoms: _38  and  _39
REMARK   17  A    between atoms: _38  and  _41
REMARK   18  A    between atoms: _41  and  _42
REMARK   19  A    between atoms: _45  and  _47
REMARK   20  A    between atoms: _47  and  _48
REMARK   21  A    between atoms: _47  and  _50
REMARK   22  A    between atoms: _50  and  _51
REMARK   23  A    between atoms: _54  and  _56
REMARK   24  A    between atoms: _56  and  _57
REMARK   25  A    between atoms: _59  and  _61
REMARK   26  A    between atoms: _61  and  _62
REMARK   27  A    between atoms: _65  and  _67
REMARK   28  A    between atoms: _67  and  _68
REMARK   29  A    between atoms: _67  and  _70
REMARK   30  A    between atoms: _70  and  _71
REMARK   31  A    between atoms: _74  and  _76
REMARK   32  A    between atoms: _76  and  _77
REMARK   33  A    between atoms: _76  and  _79
REMARK   34  A    between atoms: _79  and  _80
REMARK   35  A    between atoms: _83  and  _85
REMARK   36  A    between atoms: _85  and  _86
REMARK   37  A    between atoms: _85  and  _88
REMARK   38  A    between atoms: _88  and  _89
REMARK   39  A    between atoms: _92  and  _94
REMARK   40  A    between atoms: _94  and  _95
REMARK   41  A    between atoms: _94  and  _97
REMARK   42  A    between atoms: _100  and  _102
REMARK   43  A    between atoms: _102  and  _103
REMARK   44  A    between atoms: _102  and  _105
REMARK   45  A    between atoms: _105  and  _106
REMARK   46  A    between atoms: _109  and  _111
REMARK   47  A    between atoms: _111  and  _112
REMARK   48  A    between atoms: _114  and  _116
REMARK   49  A    between atoms: _116  and  _117
REMARK   50  A    between atoms: _119  and  _121
REMARK   51  A    between atoms: _121  and  _122
REMARK   52  A    between atoms: _121  and  _124
REMARK   53  A    between atoms: _124  and  _125
REMARK   54  A    between atoms: _128  and  _130
REMARK   55  A    between atoms: _130  and  _131
REMARK   56  A    between atoms: _133  and  _135
REMARK   57  A    between atoms: _135  and  _136
REMARK   58  A    between atoms: _138  and  _140
REMARK   59  A    between atoms: _140  and  _141
REMARK   60  A    between atoms: _140  and  _143
REMARK   61  A    between atoms: _143  and  _144
REMARK   62  A    between atoms: _150  and  _152
REMARK   63  A    between atoms: _152  and  _153
REMARK   64  A    between atoms: _152  and  _155
REMARK   65  A    between atoms: _155  and  _156
REMARK   66  A    between atoms: _159  and  _161
REMARK   67  A    between atoms: _161  and  _162
REMARK   68  A    between atoms: _161  and  _164
REMARK   69  A    between atoms: _164  and  _165
REMARK   70  A    between atoms: _169  and  _170
REMARK   71  A    between atoms: _175  and  _177
REMARK   72  A    between atoms: _177  and  _178
REMARK   73  A    between atoms: _177  and  _180
REMARK   74  A    between atoms: _180  and  _181
REMARK   75  A    between atoms: _185  and  _186
REMARK   76  A    between atoms: _191  and  _193
REMARK   77  A    between atoms: _193  and  _194
REMARK   78  A    between atoms: _193  and  _196
REMARK   79  A    between atoms: _199  and  _201
REMARK   80  A    between atoms: _201  and  _202
REMARK   81  A    between atoms: _201  and  _204
REMARK   82  A    between atoms: _204  and  _205
REMARK   83  A    between atoms: _210  and  _212
REMARK   84  A    between atoms: _212  and  _213
REMARK   85  A    between atoms: _212  and  _215
REMARK   86  A    between atoms: _215  and  _216
REMARK   87  A    between atoms: _219  and  _221
REMARK   88  A    between atoms: _221  and  _222
REMARK   89  A    between atoms: _221  and  _224
REMARK   90  A    between atoms: _224  and  _225
REMARK   91  A    between atoms: _228  and  _230
REMARK   92  A    between atoms: _230  and  _231
REMARK   93  A    between atoms: _233  and  _235
REMARK   94  A    between atoms: _235  and  _236
REMARK   95  A    between atoms: _235  and  _238
REMARK   96  A    between atoms: _238  and  _239
REMARK   97  A    between atoms: _239  and  _240
REMARK   98  A    between atoms: _240  and  _241
REMARK   99  A    between atoms: _250  and  _252
REMARK  100  A    between atoms: _252  and  _253
REMARK  101  A    between atoms: _252  and  _255
REMARK  102  A    between atoms: _255  and  _256
REMARK  103  A    between atoms: _256  and  _257
REMARK  104  A    between atoms: _257  and  _258
REMARK  105  A    between atoms: _267  and  _269
REMARK  106  A    between atoms: _269  and  _270
REMARK  107  A    between atoms: _269  and  _272
REMARK  108  A    between atoms: _272  and  _273
REMARK  109  A    between atoms: _276  and  _278
REMARK  110  A    between atoms: _278  and  _279
REMARK  111  A    between atoms: _278  and  _281
REMARK  112  A    between atoms: _281  and  _282
REMARK  113  A    between atoms: _285  and  _287
REMARK  114  A    between atoms: _287  and  _288
REMARK  115  A    between atoms: _287  and  _290
REMARK  116  A    between atoms: _290  and  _291
REMARK  117  A    between atoms: _294  and  _296
REMARK  118  A    between atoms: _296  and  _297
REMARK  119  A    between atoms: _296  and  _299
REMARK  120  A    between atoms: _299  and  _300
REMARK  121  A    between atoms: _303  and  _305
REMARK  122  A    between atoms: _305  and  _306
REMARK  123  A    between atoms: _308  and  _310
REMARK  124  A    between atoms: _310  and  _311
REMARK  125  A    between atoms: _314  and  _316
REMARK  126  A    between atoms: _316  and  _317
REMARK  127  A    between atoms: _316  and  _319
REMARK  128  A    between atoms: _319  and  _320
REMARK  129  A    between atoms: _323  and  _325
REMARK  130  A    between atoms: _325  and  _326
REMARK  131  A    between atoms: _325  and  _328
REMARK  132  A    between atoms: _328  and  _329
REMARK  133  A    between atoms: _332  and  _334
REMARK  134  A    between atoms: _334  and  _335
REMARK  135  A    between atoms: _334  and  _337
REMARK  136  A    between atoms: _337  and  _338
REMARK  137  A    between atoms: _341  and  _343
REMARK  138  A    between atoms: _343  and  _344
REMARK  139  A    between atoms: _343  and  _346
REMARK  140  A    between atoms: _349  and  _351
REMARK  141  A    between atoms: _351  and  _352
REMARK  142  A    between atoms: _351  and  _354
REMARK  143  A    between atoms: _354  and  _355
REMARK  144  A    between atoms: _355  and  _356
REMARK  145  A    between atoms: _356  and  _357
REMARK  146  A    between atoms: _357  and  _358
REMARK  147  A    between atoms: _362  and  _364
REMARK  148  A    between atoms: _364  and  _365
REMARK  149  A    between atoms: _364  and  _367
REMARK  150  A    between atoms: _367  and  _368
REMARK  151  A    between atoms: _368  and  _369
REMARK  152  A    between atoms: _371  and  _373
REMARK  153  A    between atoms: _373  and  _374
REMARK  154  A    between atoms: _373  and  _376
REMARK  155  A    between atoms: _376  and  _377
REMARK  156  A    between atoms: _380  and  _382
REMARK  157  A    between atoms: _382  and  _383
REMARK  158  A    between atoms: _385  and  _387
REMARK  159  A    between atoms: _387  and  _388
REMARK  160  A    between atoms: _390  and  _392
REMARK  161  A    between atoms: _392  and  _393
REMARK  162  A    between atoms: _392  and  _395
REMARK  163  A    between atoms: _395  and  _396
REMARK  164  A    between atoms: _399  and  _401
REMARK  165  A    between atoms: _401  and  _402
REMARK  166  A    between atoms: _404  and  _406
REMARK  167  A    between atoms: _406  and  _407
REMARK  168  A    between atoms: _409  and  _411
REMARK  169  A    between atoms: _411  and  _412
REMARK  170  A    between atoms: _411  and  _414
REMARK  171  A    between atoms: _414  and  _415
REMARK  172  A    between atoms: _418  and  _420
REMARK  173  A    between atoms: _420  and  _421
REMARK  174  A    between atoms: _420  and  _423
REMARK  175  A    between atoms: _426  and  _428
REMARK  176  A    between atoms: _428  and  _429
REMARK  177  A    between atoms: _428  and  _431
REMARK  178  A    between atoms: _431  and  _432
REMARK  179  A    between atoms: _435  and  _437
REMARK  180  A    between atoms: _437  and  _438
REMARK  181  A    between atoms: _437  and  _440
REMARK  182  A    between atoms: _440  and  _441
REMARK  183  A    between atoms: _445  and  _446
REMARK  184  A    between atoms: _451  and  _453
REMARK  185  A    between atoms: _453  and  _454
REMARK  186  A    between atoms: _453  and  _456
REMARK  187  A    between atoms: _459  and  _461
REMARK  188  A    between atoms: _461  and  _462
REMARK  189  A    between atoms: _461  and  _464
REMARK  190  A    between atoms: _464  and  _465
REMARK  191  A    between atoms: _470  and  _472
REMARK  192  A    between atoms: _472  and  _473
REMARK  193  A    between atoms: _472  and  _475
REMARK  194  A    between atoms: _475  and  _476
REMARK  195  A    between atoms: _479  and  _481
REMARK  196  A    between atoms: _481  and  _482
REMARK  197  A    between atoms: _481  and  _484
REMARK  198  A    between atoms: _484  and  _485
REMARK  199  A    between atoms: _488  and  _490
REMARK  200  A    between atoms: _490  and  _491
REMARK  201  A    between atoms: _493  and  _495
REMARK  202  A    between atoms: _495  and  _496
REMARK  203  A    between atoms: _495  and  _498
REMARK  204  A    between atoms: _498  and  _499
REMARK  205  A    between atoms: _499  and  _500
REMARK  206  A    between atoms: _500  and  _501
REMARK  207  A    between atoms: _510  and  _512
REMARK  208  A    between atoms: _512  and  _513
REMARK  209  A    between atoms: _512  and  _515
REMARK  210  A    between atoms: _515  and  _516
REMARK                            x       y       z     vdW  Elec       q    Type
REMARK                         _______ _______ _______ _____ _____    ______ ____
ROOT
ATOM      1  O   HOH     1      10.822   8.813  10.632  0.00  0.00    +0.000 OA
ENDROOT
TORSDOF 0
REMARK  Name = ../refined-set-2016/1d4l/1d4l_pocket.pdb
REMARK  210 active torsions:
REMARK  status: ('A' for Active; 'I' for Inactive)
REMARK    1  A    between atoms: _1  and  _3
REMARK    2  A    between atoms: _3  and  _4
REMARK    3  A    between atoms: _3  and  _6
REMARK    4  A    between atoms: _6  and  _7
REMARK    5  A    between atoms: _7  and  _8
REMARK    6  A    between atoms: _8  and  _9
REMARK    7  A    between atoms: _18  and  _20
REMARK    8  A    between atoms: _20  and  _21
REMARK    9  A    between atoms: _20  and  _23
REMARK   10  A    between atoms: _23  and  _24
REMARK   11  A    between atoms: _27  and  _29
REMARK   12  A    between atoms: _29  and  _30
REMARK   13  A    between atoms: _29  and  _32
REMARK   14  A    between atoms: _32  and  _33
REMARK   15  A    between atoms: _36  and  _38
REMARK   16  A    between atoms: _38  and  _39
REMARK   17  A    between atoms: _38  and  _41
REMARK   18  A    between atoms: _41  and  _42
REMARK   19  A    between atoms: _45  and  _47
REMARK   20  A    between atoms: _47  and  _48
REMARK   21  A    between atoms: _47  and  _50
REMARK   22  A    between atoms: _50  and  _51
REMARK   23  A    between atoms: _54  and  _56
REMARK   24  A    between atoms: _56  and  _57
REMARK   25  A    between atoms: _59  and  _61
REMARK   26  A    between atoms: _61  and  _62
REMARK   27  A    between atoms: _65  and  _67
REMARK   28  A    between atoms: _67  and  _68
REMARK   29  A    between atoms: _67  and  _70
REMARK   30  A    between atoms: _70  and  _71
REMARK   31  A    between atoms: _74  and  _76
REMARK   32  A    between atoms: _76  and  _77
REMARK   33  A    between atoms: _76  and  _79
REMARK   34  A    between atoms: _79  and  _80
REMARK   35  A    between atoms: _83  and  _85
REMARK   36  A    between atoms: _85  and  _86
REMARK   37  A    between atoms: _85  and  _88
REMARK   38  A    between atoms: _88  and  _89
REMARK   39  A    between atoms: _92  and  _94
REMARK   40  A    between atoms: _94  and  _95
REMARK   41  A    between atoms: _94  and  _97
REMARK   42  A    between atoms: _100  and  _102
REMARK   43  A    between atoms: _102  and  _103
REMARK   44  A    between atoms: _102  and  _105
REMARK   45  A    between atoms: _105  and  _106
REMARK   46  A    between atoms: _109  and  _111
REMARK   47  A    between atoms: _111  and  _112
REMARK   48  A    between atoms: _114  and  _116
REMARK   49  A    between atoms: _116  and  _117
REMARK   50  A    between atoms: _119  and  _121
REMARK   51  A    between atoms: _121  and  _122
REMARK   52  A    between atoms: _121  and  _124
REMARK   53  A    between atoms: _124  and  _125
REMARK   54  A    between atoms: _128  and  _130
REMARK   55  A    between atoms: _130  and  _131
REMARK   56  A    between atoms: _133  and  _135
REMARK   57  A    between atoms: _135  and  _136
REMARK   58  A    between atoms: _138  and  _140
REMARK   59  A    between atoms: _140  and  _141
REMARK   60  A    between atoms: _140  and  _143
REMARK   61  A    between atoms: _143  and  _144
REMARK   62  A    between atoms: _150  and  _152
REMARK   63  A    between atoms: _152  and  _153
REMARK   64  A    between atoms: _152  and  _155
REMARK   65  A    between atoms: _155  and  _156
REMARK   66  A    between atoms: _159  and  _161
REMARK   67  A    between atoms: _161  and  _162
REMARK   68  A    between atoms: _161  and  _164
REMARK   69  A    between atoms: _164  and  _165
REMARK   70  A    between atoms: _169  and  _170
REMARK   71  A    between atoms: _175  and  _177
REMARK   72  A    between atoms: _177  and  _178
REMARK   73  A    between atoms: _177  and  _180
REMARK   74  A    between atoms: _180  and  _181
REMARK   75  A    between atoms: _185  and  _186
REMARK   76  A    between atoms: _191  and  _193
REMARK   77  A    between atoms: _193  and  _194
REMARK   78  A    between atoms: _193  and  _196
REMARK   79  A    between atoms: _199  and  _201
REMARK   80  A    between atoms: _201  and  _202
REMARK   81  A    between atoms: _201  and  _204
REMARK   82  A    between atoms: _204  and  _205
REMARK   83  A    between atoms: _210  and  _212
REMARK   84  A    between atoms: _212  and  _213
REMARK   85  A    between atoms: _212  and  _215
REMARK   86  A    between atoms: _215  and  _216
REMARK   87  A    between atoms: _219  and  _221
REMARK   88  A    between atoms: _221  and  _222
REMARK   89  A    between atoms: _221  and  _224
REMARK   90  A    between atoms: _224  and  _225
REMARK   91  A    between atoms: _228  and  _230
REMARK   92  A    between atoms: _230  and  _231
REMARK   93  A    between atoms: _233  and  _235
REMARK   94  A    between atoms: _235  and  _236
REMARK   95  A    between atoms: _235  and  _238
REMARK   96  A    between atoms: _238  and  _239
REMARK   97  A    between atoms: _239  and  _240
REMARK   98  A    between atoms: _240  and  _241
REMARK   99  A    between atoms: _250  and  _252
REMARK  100  A    between atoms: _252  and  _253
REMARK  101  A    between atoms: _252  and  _255
REMARK  102  A    between atoms: _255  and  _256
REMARK  103  A    between atoms: _256  and  _257
REMARK  104  A    between atoms: _257  and  _258
REMARK  105  A    between atoms: _267  and  _269
REMARK  106  A    between atoms: _269  and  _270
REMARK  107  A    between atoms: _269  and  _272
REMARK  108  A    between atoms: _272  and  _273
REMARK  109  A    between atoms: _276  and  _278
REMARK  110  A    between atoms: _278  and  _279
REMARK  111  A    between atoms: _278  and  _281
REMARK  112  A    between atoms: _281  and  _282
REMARK  113  A    between atoms: _285  and  _287
REMARK  114  A    between atoms: _287  and  _288
REMARK  115  A    between atoms: _287  and  _290
REMARK  116  A    between atoms: _290  and  _291
REMARK  117  A    between atoms: _294  and  _296
REMARK  118  A    between atoms: _296  and  _297
REMARK  119  A    between atoms: _296  and  _299
REMARK  120  A    between atoms: _299  and  _300
REMARK  121  A    between atoms: _303  and  _305
REMARK  122  A    between atoms: _305  and  _306
REMARK  123  A    between atoms: _308  and  _310
REMARK  124  A    between atoms: _310  and  _311
REMARK  125  A    between atoms: _314  and  _316
REMARK  126  A    between atoms: _316  and  _317
REMARK  127  A    between atoms: _316  and  _319
REMARK  128  A    between atoms: _319  and  _320
REMARK  129  A    between atoms: _323  and  _325
REMARK  130  A    between atoms: _325  and  _326
REMARK  131  A    between atoms: _325  and  _328
REMARK  132  A    between atoms: _328  and  _329
REMARK  133  A    between atoms: _332  and  _334
REMARK  134  A    between atoms: _334  and  _335
REMARK  135  A    between atoms: _334  and  _337
REMARK  136  A    between atoms: _337  and  _338
REMARK  137  A    between atoms: _341  and  _343
REMARK  138  A    between atoms: _343  and  _344
REMARK  139  A    between atoms: _343  and  _346
REMARK  140  A    between atoms: _349  and  _351
REMARK  141  A    between atoms: _351  and  _352
REMARK  142  A    between atoms: _351  and  _354
REMARK  143  A    between atoms: _354  and  _355
REMARK  144  A    between atoms: _355  and  _356
REMARK  145  A    between atoms: _356  and  _357
REMARK  146  A    between atoms: _357  and  _358
REMARK  147  A    between atoms: _362  and  _364
REMARK  148  A    between atoms: _364  and  _365
REMARK  149  A    between atoms: _364  and  _367
REMARK  150  A    between atoms: _367  and  _368
REMARK  151  A    between atoms: _368  and  _369
REMARK  152  A    between atoms: _371  and  _373
REMARK  153  A    between atoms: _373  and  _374
REMARK  154  A    between atoms: _373  and  _376
REMARK  155  A    between atoms: _376  and  _377
REMARK  156  A    between atoms: _380  and  _382
REMARK  157  A    between atoms: _382  and  _383
REMARK  158  A    between atoms: _385  and  _387
REMARK  159  A    between atoms: _387  and  _388
REMARK  160  A    between atoms: _390  and  _392
REMARK  161  A    between atoms: _392  and  _393
REMARK  162  A    between atoms: _392  and  _395
REMARK  163  A    between atoms: _395  and  _396
REMARK  164  A    between atoms: _399  and  _401
REMARK  165  A    between atoms: _401  and  _402
REMARK  166  A    between atoms: _404  and  _406
REMARK  167  A    between atoms: _406  and  _407
REMARK  168  A    between atoms: _409  and  _411
REMARK  169  A    between atoms: _411  and  _412
REMARK  170  A    between atoms: _411  and  _414
REMARK  171  A    between atoms: _414  and  _415
REMARK  172  A    between atoms: _418  and  _420
REMARK  173  A    between atoms: _420  and  _421
REMARK  174  A    between atoms: _420  and  _423
REMARK  175  A    between atoms: _426  and  _428
REMARK  176  A    between atoms: _428  and  _429
REMARK  177  A    between atoms: _428  and  _431
REMARK  178  A    between atoms: _431  and  _432
REMARK  179  A    between atoms: _435  and  _437
REMARK  180  A    between atoms: _437  and  _438
REMARK  181  A    between atoms: _437  and  _440
REMARK  182  A    between atoms: _440  and  _441
REMARK  183  A    between atoms: _445  and  _446
REMARK  184  A    between atoms: _451  and  _453
REMARK  185  A    between atoms: _453  and  _454
REMARK  186  A    between atoms: _453  and  _456
REMARK  187  A    between atoms: _459  and  _461
REMARK  188  A    between atoms: _461  and  _462
REMARK  189  A    between atoms: _461  and  _464
REMARK  190  A    between atoms: _464  and  _465
REMARK  191  A    between atoms: _470  and  _472
REMARK  192  A    between atoms: _472  and  _473
REMARK  193  A    between atoms: _472  and  _475
REMARK  194  A    between atoms: _475  and  _476
REMARK  195  A    between atoms: _479  and  _481
REMARK  196  A    between atoms: _481  and  _482
REMARK  197  A    between atoms: _481  and  _484
REMARK  198  A    between atoms: _484  and  _485
REMARK  199  A    between atoms: _488  and  _490
REMARK  200  A    between atoms: _490  and  _491
REMARK  201  A    between atoms: _493  and  _495
REMARK  202  A    between atoms: _495  and  _496
REMARK  203  A    between atoms: _495  and  _498
REMARK  204  A    between atoms: _498  and  _499
REMARK  205  A    between atoms: _499  and  _500
REMARK  206  A    between atoms: _500  and  _501
REMARK  207  A    between atoms: _510  and  _512
REMARK  208  A    between atoms: _512  and  _513
REMARK  209  A    between atoms: _512  and  _515
REMARK  210  A    between atoms: _515  and  _516
REMARK                            x       y       z     vdW  Elec       q    Type
REMARK                         _______ _______ _______ _____ _____    ______ ____
ROOT
ATOM      1  O   HOH     1       8.157 -10.847  16.108  0.00  0.00    +0.000 OA
ENDROOT
TORSDOF 0
REMARK  Name = ../refined-set-2016/1d4l/1d4l_pocket.pdb
REMARK  210 active torsions:
REMARK  status: ('A' for Active; 'I' for Inactive)
REMARK    1  A    between atoms: _1  and  _3
REMARK    2  A    between atoms: _3  and  _4
REMARK    3  A    between atoms: _3  and  _6
REMARK    4  A    between atoms: _6  and  _7
REMARK    5  A    between atoms: _7  and  _8
REMARK    6  A    between atoms: _8  and  _9
REMARK    7  A    between atoms: _18  and  _20
REMARK    8  A    between atoms: _20  and  _21
REMARK    9  A    between atoms: _20  and  _23
REMARK   10  A    between atoms: _23  and  _24
REMARK   11  A    between atoms: _27  and  _29
REMARK   12  A    between atoms: _29  and  _30
REMARK   13  A    between atoms: _29  and  _32
REMARK   14  A    between atoms: _32  and  _33
REMARK   15  A    between atoms: _36  and  _38
REMARK   16  A    between atoms: _38  and  _39
REMARK   17  A    between atoms: _38  and  _41
REMARK   18  A    between atoms: _41  and  _42
REMARK   19  A    between atoms: _45  and  _47
REMARK   20  A    between atoms: _47  and  _48
REMARK   21  A    between atoms: _47  and  _50
REMARK   22  A    between atoms: _50  and  _51
REMARK   23  A    between atoms: _54  and  _56
REMARK   24  A    between atoms: _56  and  _57
REMARK   25  A    between atoms: _59  and  _61
REMARK   26  A    between atoms: _61  and  _62
REMARK   27  A    between atoms: _65  and  _67
REMARK   28  A    between atoms: _67  and  _68
REMARK   29  A    between atoms: _67  and  _70
REMARK   30  A    between atoms: _70  and  _71
REMARK   31  A    between atoms: _74  and  _76
REMARK   32  A    between atoms: _76  and  _77
REMARK   33  A    between atoms: _76  and  _79
REMARK   34  A    between atoms: _79  and  _80
REMARK   35  A    between atoms: _83  and  _85
REMARK   36  A    between atoms: _85  and  _86
REMARK   37  A    between atoms: _85  and  _88
REMARK   38  A    between atoms: _88  and  _89
REMARK   39  A    between atoms: _92  and  _94
REMARK   40  A    between atoms: _94  and  _95
REMARK   41  A    between atoms: _94  and  _97
REMARK   42  A    between atoms: _100  and  _102
REMARK   43  A    between atoms: _102  and  _103
REMARK   44  A    between atoms: _102  and  _105
REMARK   45  A    between atoms: _105  and  _106
REMARK   46  A    between atoms: _109  and  _111
REMARK   47  A    between atoms: _111  and  _112
REMARK   48  A    between atoms: _114  and  _116
REMARK   49  A    between atoms: _116  and  _117
REMARK   50  A    between atoms: _119  and  _121
REMARK   51  A    between atoms: _121  and  _122
REMARK   52  A    between atoms: _121  and  _124
REMARK   53  A    between atoms: _124  and  _125
REMARK   54  A    between atoms: _128  and  _130
REMARK   55  A    between atoms: _130  and  _131
REMARK   56  A    between atoms: _133  and  _135
REMARK   57  A    between atoms: _135  and  _136
REMARK   58  A    between atoms: _138  and  _140
REMARK   59  A    between atoms: _140  and  _141
REMARK   60  A    between atoms: _140  and  _143
REMARK   61  A    between atoms: _143  and  _144
REMARK   62  A    between atoms: _150  and  _152
REMARK   63  A    between atoms: _152  and  _153
REMARK   64  A    between atoms: _152  and  _155
REMARK   65  A    between atoms: _155  and  _156
REMARK   66  A    between atoms: _159  and  _161
REMARK   67  A    between atoms: _161  and  _162
REMARK   68  A    between atoms: _161  and  _164
REMARK   69  A    between atoms: _164  and  _165
REMARK   70  A    between atoms: _169  and  _170
REMARK   71  A    between atoms: _175  and  _177
REMARK   72  A    between atoms: _177  and  _178
REMARK   73  A    between atoms: _177  and  _180
REMARK   74  A    between atoms: _180  and  _181
REMARK   75  A    between atoms: _185  and  _186
REMARK   76  A    between atoms: _191  and  _193
REMARK   77  A    between atoms: _193  and  _194
REMARK   78  A    between atoms: _193  and  _196
REMARK   79  A    between atoms: _199  and  _201
REMARK   80  A    between atoms: _201  and  _202
REMARK   81  A    between atoms: _201  and  _204
REMARK   82  A    between atoms: _204  and  _205
REMARK   83  A    between atoms: _210  and  _212
REMARK   84  A    between atoms: _212  and  _213
REMARK   85  A    between atoms: _212  and  _215
REMARK   86  A    between atoms: _215  and  _216
REMARK   87  A    between atoms: _219  and  _221
REMARK   88  A    between atoms: _221  and  _222
REMARK   89  A    between atoms: _221  and  _224
REMARK   90  A    between atoms: _224  and  _225
REMARK   91  A    between atoms: _228  and  _230
REMARK   92  A    between atoms: _230  and  _231
REMARK   93  A    between atoms: _233  and  _235
REMARK   94  A    between atoms: _235  and  _236
REMARK   95  A    between atoms: _235  and  _238
REMARK   96  A    between atoms: _238  and  _239
REMARK   97  A    between atoms: _239  and  _240
REMARK   98  A    between atoms: _240  and  _241
REMARK   99  A    between atoms: _250  and  _252
REMARK  100  A    between atoms: _252  and  _253
REMARK  101  A    between atoms: _252  and  _255
REMARK  102  A    between atoms: _255  and  _256
REMARK  103  A    between atoms: _256  and  _257
REMARK  104  A    between atoms: _257  and  _258
REMARK  105  A    between atoms: _267  and  _269
REMARK  106  A    between atoms: _269  and  _270
REMARK  107  A    between atoms: _269  and  _272
REMARK  108  A    between atoms: _272  and  _273
REMARK  109  A    between atoms: _276  and  _278
REMARK  110  A    between atoms: _278  and  _279
REMARK  111  A    between atoms: _278  and  _281
REMARK  112  A    between atoms: _281  and  _282
REMARK  113  A    between atoms: _285  and  _287
REMARK  114  A    between atoms: _287  and  _288
REMARK  115  A    between atoms: _287  and  _290
REMARK  116  A    between atoms: _290  and  _291
REMARK  117  A    between atoms: _294  and  _296
REMARK  118  A    between atoms: _296  and  _297
REMARK  119  A    between atoms: _296  and  _299
REMARK  120  A    between atoms: _299  and  _300
REMARK  121  A    between atoms: _303  and  _305
REMARK  122  A    between atoms: _305  and  _306
REMARK  123  A    between atoms: _308  and  _310
REMARK  124  A    between atoms: _310  and  _311
REMARK  125  A    between atoms: _314  and  _316
REMARK  126  A    between atoms: _316  and  _317
REMARK  127  A    between atoms: _316  and  _319
REMARK  128  A    between atoms: _319  and  _320
REMARK  129  A    between atoms: _323  and  _325
REMARK  130  A    between atoms: _325  and  _326
REMARK  131  A    between atoms: _325  and  _328
REMARK  132  A    between atoms: _328  and  _329
REMARK  133  A    between atoms: _332  and  _334
REMARK  134  A    between atoms: _334  and  _335
REMARK  135  A    between atoms: _334  and  _337
REMARK  136  A    between atoms: _337  and  _338
REMARK  137  A    between atoms: _341  and  _343
REMARK  138  A    between atoms: _343  and  _344
REMARK  139  A    between atoms: _343  and  _346
REMARK  140  A    between atoms: _349  and  _351
REMARK  141  A    between atoms: _351  and  _352
REMARK  142  A    between atoms: _351  and  _354
REMARK  143  A    between atoms: _354  and  _355
REMARK  144  A    between atoms: _355  and  _356
REMARK  145  A    between atoms: _356  and  _357
REMARK  146  A    between atoms: _357  and  _358
REMARK  147  A    between atoms: _362  and  _364
REMARK  148  A    between atoms: _364  and  _365
REMARK  149  A    between atoms: _364  and  _367
REMARK  150  A    between atoms: _367  and  _368
REMARK  151  A    between atoms: _368  and  _369
REMARK  152  A    between atoms: _371  and  _373
REMARK  153  A    between atoms: _373  and  _374
REMARK  154  A    between atoms: _373  and  _376
REMARK  155  A    between atoms: _376  and  _377
REMARK  156  A    between atoms: _380  and  _382
REMARK  157  A    between atoms: _382  and  _383
REMARK  158  A    between atoms: _385  and  _387
REMARK  159  A    between atoms: _387  and  _388
REMARK  160  A    between atoms: _390  and  _392
REMARK  161  A    between atoms: _392  and  _393
REMARK  162  A    between atoms: _392  and  _395
REMARK  163  A    between atoms: _395  and  _396
REMARK  164  A    between atoms: _399  and  _401
REMARK  165  A    between atoms: _401  and  _402
REMARK  166  A    between atoms: _404  and  _406
REMARK  167  A    between atoms: _406  and  _407
REMARK  168  A    between atoms: _409  and  _411
REMARK  169  A    between atoms: _411  and  _412
REMARK  170  A    between atoms: _411  and  _414
REMARK  171  A    between atoms: _414  and  _415
REMARK  172  A    between atoms: _418  and  _420
REMARK  173  A    between atoms: _420  and  _421
REMARK  174  A    between atoms: _420  and  _423
REMARK  175  A    between atoms: _426  and  _428
REMARK  176  A    between atoms: _428  and  _429
REMARK  177  A    between atoms: _428  and  _431
REMARK  178  A    between atoms: _431  and  _432
REMARK  179  A    between atoms: _435  and  _437
REMARK  180  A    between atoms: _437  and  _438
REMARK  181  A    between atoms: _437  and  _440
REMARK  182  A    between atoms: _440  and  _441
REMARK  183  A    between atoms: _445  and  _446
REMARK  184  A    between atoms: _451  and  _453
REMARK  185  A    between atoms: _453  and  _454
REMARK  186  A    between atoms: _453  and  _456
REMARK  187  A    between atoms: _459  and  _461
REMARK  188  A    between atoms: _461  and  _462
REMARK  189  A    between atoms: _461  and  _464
REMARK  190  A    between atoms: _464  and  _465
REMARK  191  A    between atoms: _470  and  _472
REMARK  192  A    between atoms: _472  and  _473
REMARK  193  A    between atoms: _472  and  _475
REMARK  194  A    between atoms: _475  and  _476
REMARK  195  A    between atoms: _479  and  _481
REMARK  196  A    between atoms: _481  and  _482
REMARK  197  A    between atoms: _481  and  _484
REMARK  198  A    between atoms: _484  and  _485
REMARK  199  A    between atoms: _488  and  _490
REMARK  200  A    between atoms: _490  and  _491
REMARK  201  A    between atoms: _493  and  _495
REMARK  202  A    between atoms: _495  and  _496
REMARK  203  A    between atoms: _495  and  _498
REMARK  204  A    between atoms: _498  and  _499
REMARK  205  A    between atoms: _499  and  _500
REMARK  206  A    between atoms: _500  and  _501
REMARK  207  A    between atoms: _510  and  _512
REMARK  208  A    between atoms: _512  and  _513
REMARK  209  A    between atoms: _512  and  _515
REMARK  210  A    between atoms: _515  and  _516
REMARK                            x       y       z     vdW  Elec       q    Type
REMARK                         _______ _______ _______ _____ _____    ______ ____
ROOT
ATOM      1  O   HOH     1       7.180  -5.679  19.105  0.00  0.00    +0.000 OA
ENDROOT
TORSDOF 0
REMARK  Name = ../refined-set-2016/1d4l/1d4l_pocket.pdb
REMARK  210 active torsions:
REMARK  status: ('A' for Active; 'I' for Inactive)
REMARK    1  A    between atoms: _1  and  _3
REMARK    2  A    between atoms: _3  and  _4
REMARK    3  A    between atoms: _3  and  _6
REMARK    4  A    between atoms: _6  and  _7
REMARK    5  A    between atoms: _7  and  _8
REMARK    6  A    between atoms: _8  and  _9
REMARK    7  A    between atoms: _18  and  _20
REMARK    8  A    between atoms: _20  and  _21
REMARK    9  A    between atoms: _20  and  _23
REMARK   10  A    between atoms: _23  and  _24
REMARK   11  A    between atoms: _27  and  _29
REMARK   12  A    between atoms: _29  and  _30
REMARK   13  A    between atoms: _29  and  _32
REMARK   14  A    between atoms: _32  and  _33
REMARK   15  A    between atoms: _36  and  _38
REMARK   16  A    between atoms: _38  and  _39
REMARK   17  A    between atoms: _38  and  _41
REMARK   18  A    between atoms: _41  and  _42
REMARK   19  A    between atoms: _45  and  _47
REMARK   20  A    between atoms: _47  and  _48
REMARK   21  A    between atoms: _47  and  _50
REMARK   22  A    between atoms: _50  and  _51
REMARK   23  A    between atoms: _54  and  _56
REMARK   24  A    between atoms: _56  and  _57
REMARK   25  A    between atoms: _59  and  _61
REMARK   26  A    between atoms: _61  and  _62
REMARK   27  A    between atoms: _65  and  _67
REMARK   28  A    between atoms: _67  and  _68
REMARK   29  A    between atoms: _67  and  _70
REMARK   30  A    between atoms: _70  and  _71
REMARK   31  A    between atoms: _74  and  _76
REMARK   32  A    between atoms: _76  and  _77
REMARK   33  A    between atoms: _76  and  _79
REMARK   34  A    between atoms: _79  and  _80
REMARK   35  A    between atoms: _83  and  _85
REMARK   36  A    between atoms: _85  and  _86
REMARK   37  A    between atoms: _85  and  _88
REMARK   38  A    between atoms: _88  and  _89
REMARK   39  A    between atoms: _92  and  _94
REMARK   40  A    between atoms: _94  and  _95
REMARK   41  A    between atoms: _94  and  _97
REMARK   42  A    between atoms: _100  and  _102
REMARK   43  A    between atoms: _102  and  _103
REMARK   44  A    between atoms: _102  and  _105
REMARK   45  A    between atoms: _105  and  _106
REMARK   46  A    between atoms: _109  and  _111
REMARK   47  A    between atoms: _111  and  _112
REMARK   48  A    between atoms: _114  and  _116
REMARK   49  A    between atoms: _116  and  _117
REMARK   50  A    between atoms: _119  and  _121
REMARK   51  A    between atoms: _121  and  _122
REMARK   52  A    between atoms: _121  and  _124
REMARK   53  A    between atoms: _124  and  _125
REMARK   54  A    between atoms: _128  and  _130
REMARK   55  A    between atoms: _130  and  _131
REMARK   56  A    between atoms: _133  and  _135
REMARK   57  A    between atoms: _135  and  _136
REMARK   58  A    between atoms: _138  and  _140
REMARK   59  A    between atoms: _140  and  _141
REMARK   60  A    between atoms: _140  and  _143
REMARK   61  A    between atoms: _143  and  _144
REMARK   62  A    between atoms: _150  and  _152
REMARK   63  A    between atoms: _152  and  _153
REMARK   64  A    between atoms: _152  and  _155
REMARK   65  A    between atoms: _155  and  _156
REMARK   66  A    between atoms: _159  and  _161
REMARK   67  A    between atoms: _161  and  _162
REMARK   68  A    between atoms: _161  and  _164
REMARK   69  A    between atoms: _164  and  _165
REMARK   70  A    between atoms: _169  and  _170
REMARK   71  A    between atoms: _175  and  _177
REMARK   72  A    between atoms: _177  and  _178
REMARK   73  A    between atoms: _177  and  _180
REMARK   74  A    between atoms: _180  and  _181
REMARK   75  A    between atoms: _185  and  _186
REMARK   76  A    between atoms: _191  and  _193
REMARK   77  A    between atoms: _193  and  _194
REMARK   78  A    between atoms: _193  and  _196
REMARK   79  A    between atoms: _199  and  _201
REMARK   80  A    between atoms: _201  and  _202
REMARK   81  A    between atoms: _201  and  _204
REMARK   82  A    between atoms: _204  and  _205
REMARK   83  A    between atoms: _210  and  _212
REMARK   84  A    between atoms: _212  and  _213
REMARK   85  A    between atoms: _212  and  _215
REMARK   86  A    between atoms: _215  and  _216
REMARK   87  A    between atoms: _219  and  _221
REMARK   88  A    between atoms: _221  and  _222
REMARK   89  A    between atoms: _221  and  _224
REMARK   90  A    between atoms: _224  and  _225
REMARK   91  A    between atoms: _228  and  _230
REMARK   92  A    between atoms: _230  and  _231
REMARK   93  A    between atoms: _233  and  _235
REMARK   94  A    between atoms: _235  and  _236
REMARK   95  A    between atoms: _235  and  _238
REMARK   96  A    between atoms: _238  and  _239
REMARK   97  A    between atoms: _239  and  _240
REMARK   98  A    between atoms: _240  and  _241
REMARK   99  A    between atoms: _250  and  _252
REMARK  100  A    between atoms: _252  and  _253
REMARK  101  A    between atoms: _252  and  _255
REMARK  102  A    between atoms: _255  and  _256
REMARK  103  A    between atoms: _256  and  _257
REMARK  104  A    between atoms: _257  and  _258
REMARK  105  A    between atoms: _267  and  _269
REMARK  106  A    between atoms: _269  and  _270
REMARK  107  A    between atoms: _269  and  _272
REMARK  108  A    between atoms: _272  and  _273
REMARK  109  A    between atoms: _276  and  _278
REMARK  110  A    between atoms: _278  and  _279
REMARK  111  A    between atoms: _278  and  _281
REMARK  112  A    between atoms: _281  and  _282
REMARK  113  A    between atoms: _285  and  _287
REMARK  114  A    between atoms: _287  and  _288
REMARK  115  A    between atoms: _287  and  _290
REMARK  116  A    between atoms: _290  and  _291
REMARK  117  A    between atoms: _294  and  _296
REMARK  118  A    between atoms: _296  and  _297
REMARK  119  A    between atoms: _296  and  _299
REMARK  120  A    between atoms: _299  and  _300
REMARK  121  A    between atoms: _303  and  _305
REMARK  122  A    between atoms: _305  and  _306
REMARK  123  A    between atoms: _308  and  _310
REMARK  124  A    between atoms: _310  and  _311
REMARK  125  A    between atoms: _314  and  _316
REMARK  126  A    between atoms: _316  and  _317
REMARK  127  A    between atoms: _316  and  _319
REMARK  128  A    between atoms: _319  and  _320
REMARK  129  A    between atoms: _323  and  _325
REMARK  130  A    between atoms: _325  and  _326
REMARK  131  A    between atoms: _325  and  _328
REMARK  132  A    between atoms: _328  and  _329
REMARK  133  A    between atoms: _332  and  _334
REMARK  134  A    between atoms: _334  and  _335
REMARK  135  A    between atoms: _334  and  _337
REMARK  136  A    between atoms: _337  and  _338
REMARK  137  A    between atoms: _341  and  _343
REMARK  138  A    between atoms: _343  and  _344
REMARK  139  A    between atoms: _343  and  _346
REMARK  140  A    between atoms: _349  and  _351
REMARK  141  A    between atoms: _351  and  _352
REMARK  142  A    between atoms: _351  and  _354
REMARK  143  A    between atoms: _354  and  _355
REMARK  144  A    between atoms: _355  and  _356
REMARK  145  A    between atoms: _356  and  _357
REMARK  146  A    between atoms: _357  and  _358
REMARK  147  A    between atoms: _362  and  _364
REMARK  148  A    between atoms: _364  and  _365
REMARK  149  A    between atoms: _364  and  _367
REMARK  150  A    between atoms: _367  and  _368
REMARK  151  A    between atoms: _368  and  _369
REMARK  152  A    between atoms: _371  and  _373
REMARK  153  A    between atoms: _373  and  _374
REMARK  154  A    between atoms: _373  and  _376
REMARK  155  A    between atoms: _376  and  _377
REMARK  156  A    between atoms: _380  and  _382
REMARK  157  A    between atoms: _382  and  _383
REMARK  158  A    between atoms: _385  and  _387
REMARK  159  A    between atoms: _387  and  _388
REMARK  160  A    between atoms: _390  and  _392
REMARK  161  A    between atoms: _392  and  _393
REMARK  162  A    between atoms: _392  and  _395
REMARK  163  A    between atoms: _395  and  _396
REMARK  164  A    between atoms: _399  and  _401
REMARK  165  A    between atoms: _401  and  _402
REMARK  166  A    between atoms: _404  and  _406
REMARK  167  A    between atoms: _406  and  _407
REMARK  168  A    between atoms: _409  and  _411
REMARK  169  A    between atoms: _411  and  _412
REMARK  170  A    between atoms: _411  and  _414
REMARK  171  A    between atoms: _414  and  _415
REMARK  172  A    between atoms: _418  and  _420
REMARK  173  A    between atoms: _420  and  _421
REMARK  174  A    between atoms: _420  and  _423
REMARK  175  A    between atoms: _426  and  _428
REMARK  176  A    between atoms: _428  and  _429
REMARK  177  A    between atoms: _428  and  _431
REMARK  178  A    between atoms: _431  and  _432
REMARK  179  A    between atoms: _435  and  _437
REMARK  180  A    between atoms: _437  and  _438
REMARK  181  A    between atoms: _437  and  _440
REMARK  182  A    between atoms: _440  and  _441
REMARK  183  A    between atoms: _445  and  _446
REMARK  184  A    between atoms: _451  and  _453
REMARK  185  A    between atoms: _453  and  _454
REMARK  186  A    between atoms: _453  and  _456
REMARK  187  A    between atoms: _459  and  _461
REMARK  188  A    between atoms: _461  and  _462
REMARK  189  A    between atoms: _461  and  _464
REMARK  190  A    between atoms: _464  and  _465
REMARK  191  A    between atoms: _470  and  _472
REMARK  192  A    between atoms: _472  and  _473
REMARK  193  A    between atoms: _472  and  _475
REMARK  194  A    between atoms: _475  and  _476
REMARK  195  A    between atoms: _479  and  _481
REMARK  196  A    between atoms: _481  and  _482
REMARK  197  A    between atoms: _481  and  _484
REMARK  198  A    between atoms: _484  and  _485
REMARK  199  A    between atoms: _488  and  _490
REMARK  200  A    between atoms: _490  and  _491
REMARK  201  A    between atoms: _493  and  _495
REMARK  202  A    between atoms: _495  and  _496
REMARK  203  A    between atoms: _495  and  _498
REMARK  204  A    between atoms: _498  and  _499
REMARK  205  A    between atoms: _499  and  _500
REMARK  206  A    between atoms: _500  and  _501
REMARK  207  A    between atoms: _510  and  _512
REMARK  208  A    between atoms: _512  and  _513
REMARK  209  A    between atoms: _512  and  _515
REMARK  210  A    between atoms: _515  and  _516
REMARK                            x       y       z     vdW  Elec       q    Type
REMARK                         _______ _______ _______ _____ _____    ______ ____
ROOT
ATOM      1  O   HOH     1      11.533  -9.455  23.610  0.00  0.00    +0.000 OA
ENDROOT
TORSDOF 0
REMARK  Name = ../refined-set-2016/1d4l/1d4l_pocket.pdb
REMARK  210 active torsions:
REMARK  status: ('A' for Active; 'I' for Inactive)
REMARK    1  A    between atoms: _1  and  _3
REMARK    2  A    between atoms: _3  and  _4
REMARK    3  A    between atoms: _3  and  _6
REMARK    4  A    between atoms: _6  and  _7
REMARK    5  A    between atoms: _7  and  _8
REMARK    6  A    between atoms: _8  and  _9
REMARK    7  A    between atoms: _18  and  _20
REMARK    8  A    between atoms: _20  and  _21
REMARK    9  A    between atoms: _20  and  _23
REMARK   10  A    between atoms: _23  and  _24
REMARK   11  A    between atoms: _27  and  _29
REMARK   12  A    between atoms: _29  and  _30
REMARK   13  A    between atoms: _29  and  _32
REMARK   14  A    between atoms: _32  and  _33
REMARK   15  A    between atoms: _36  and  _38
REMARK   16  A    between atoms: _38  and  _39
REMARK   17  A    between atoms: _38  and  _41
REMARK   18  A    between atoms: _41  and  _42
REMARK   19  A    between atoms: _45  and  _47
REMARK   20  A    between atoms: _47  and  _48
REMARK   21  A    between atoms: _47  and  _50
REMARK   22  A    between atoms: _50  and  _51
REMARK   23  A    between atoms: _54  and  _56
REMARK   24  A    between atoms: _56  and  _57
REMARK   25  A    between atoms: _59  and  _61
REMARK   26  A    between atoms: _61  and  _62
REMARK   27  A    between atoms: _65  and  _67
REMARK   28  A    between atoms: _67  and  _68
REMARK   29  A    between atoms: _67  and  _70
REMARK   30  A    between atoms: _70  and  _71
REMARK   31  A    between atoms: _74  and  _76
REMARK   32  A    between atoms: _76  and  _77
REMARK   33  A    between atoms: _76  and  _79
REMARK   34  A    between atoms: _79  and  _80
REMARK   35  A    between atoms: _83  and  _85
REMARK   36  A    between atoms: _85  and  _86
REMARK   37  A    between atoms: _85  and  _88
REMARK   38  A    between atoms: _88  and  _89
REMARK   39  A    between atoms: _92  and  _94
REMARK   40  A    between atoms: _94  and  _95
REMARK   41  A    between atoms: _94  and  _97
REMARK   42  A    between atoms: _100  and  _102
REMARK   43  A    between atoms: _102  and  _103
REMARK   44  A    between atoms: _102  and  _105
REMARK   45  A    between atoms: _105  and  _106
REMARK   46  A    between atoms: _109  and  _111
REMARK   47  A    between atoms: _111  and  _112
REMARK   48  A    between atoms: _114  and  _116
REMARK   49  A    between atoms: _116  and  _117
REMARK   50  A    between atoms: _119  and  _121
REMARK   51  A    between atoms: _121  and  _122
REMARK   52  A    between atoms: _121  and  _124
REMARK   53  A    between atoms: _124  and  _125
REMARK   54  A    between atoms: _128  and  _130
REMARK   55  A    between atoms: _130  and  _131
REMARK   56  A    between atoms: _133  and  _135
REMARK   57  A    between atoms: _135  and  _136
REMARK   58  A    between atoms: _138  and  _140
REMARK   59  A    between atoms: _140  and  _141
REMARK   60  A    between atoms: _140  and  _143
REMARK   61  A    between atoms: _143  and  _144
REMARK   62  A    between atoms: _150  and  _152
REMARK   63  A    between atoms: _152  and  _153
REMARK   64  A    between atoms: _152  and  _155
REMARK   65  A    between atoms: _155  and  _156
REMARK   66  A    between atoms: _159  and  _161
REMARK   67  A    between atoms: _161  and  _162
REMARK   68  A    between atoms: _161  and  _164
REMARK   69  A    between atoms: _164  and  _165
REMARK   70  A    between atoms: _169  and  _170
REMARK   71  A    between atoms: _175  and  _177
REMARK   72  A    between atoms: _177  and  _178
REMARK   73  A    between atoms: _177  and  _180
REMARK   74  A    between atoms: _180  and  _181
REMARK   75  A    between atoms: _185  and  _186
REMARK   76  A    between atoms: _191  and  _193
REMARK   77  A    between atoms: _193  and  _194
REMARK   78  A    between atoms: _193  and  _196
REMARK   79  A    between atoms: _199  and  _201
REMARK   80  A    between atoms: _201  and  _202
REMARK   81  A    between atoms: _201  and  _204
REMARK   82  A    between atoms: _204  and  _205
REMARK   83  A    between atoms: _210  and  _212
REMARK   84  A    between atoms: _212  and  _213
REMARK   85  A    between atoms: _212  and  _215
REMARK   86  A    between atoms: _215  and  _216
REMARK   87  A    between atoms: _219  and  _221
REMARK   88  A    between atoms: _221  and  _222
REMARK   89  A    between atoms: _221  and  _224
REMARK   90  A    between atoms: _224  and  _225
REMARK   91  A    between atoms: _228  and  _230
REMARK   92  A    between atoms: _230  and  _231
REMARK   93  A    between atoms: _233  and  _235
REMARK   94  A    between atoms: _235  and  _236
REMARK   95  A    between atoms: _235  and  _238
REMARK   96  A    between atoms: _238  and  _239
REMARK   97  A    between atoms: _239  and  _240
REMARK   98  A    between atoms: _240  and  _241
REMARK   99  A    between atoms: _250  and  _252
REMARK  100  A    between atoms: _252  and  _253
REMARK  101  A    between atoms: _252  and  _255
REMARK  102  A    between atoms: _255  and  _256
REMARK  103  A    between atoms: _256  and  _257
REMARK  104  A    between atoms: _257  and  _258
REMARK  105  A    between atoms: _267  and  _269
REMARK  106  A    between atoms: _269  and  _270
REMARK  107  A    between atoms: _269  and  _272
REMARK  108  A    between atoms: _272  and  _273
REMARK  109  A    between atoms: _276  and  _278
REMARK  110  A    between atoms: _278  and  _279
REMARK  111  A    between atoms: _278  and  _281
REMARK  112  A    between atoms: _281  and  _282
REMARK  113  A    between atoms: _285  and  _287
REMARK  114  A    between atoms: _287  and  _288
REMARK  115  A    between atoms: _287  and  _290
REMARK  116  A    between atoms: _290  and  _291
REMARK  117  A    between atoms: _294  and  _296
REMARK  118  A    between atoms: _296  and  _297
REMARK  119  A    between atoms: _296  and  _299
REMARK  120  A    between atoms: _299  and  _300
REMARK  121  A    between atoms: _303  and  _305
REMARK  122  A    between atoms: _305  and  _306
REMARK  123  A    between atoms: _308  and  _310
REMARK  124  A    between atoms: _310  and  _311
REMARK  125  A    between atoms: _314  and  _316
REMARK  126  A    between atoms: _316  and  _317
REMARK  127  A    between atoms: _316  and  _319
REMARK  128  A    between atoms: _319  and  _320
REMARK  129  A    between atoms: _323  and  _325
REMARK  130  A    between atoms: _325  and  _326
REMARK  131  A    between atoms: _325  and  _328
REMARK  132  A    between atoms: _328  and  _329
REMARK  133  A    between atoms: _332  and  _334
REMARK  134  A    between atoms: _334  and  _335
REMARK  135  A    between atoms: _334  and  _337
REMARK  136  A    between atoms: _337  and  _338
REMARK  137  A    between atoms: _341  and  _343
REMARK  138  A    between atoms: _343  and  _344
REMARK  139  A    between atoms: _343  and  _346
REMARK  140  A    between atoms: _349  and  _351
REMARK  141  A    between atoms: _351  and  _352
REMARK  142  A    between atoms: _351  and  _354
REMARK  143  A    between atoms: _354  and  _355
REMARK  144  A    between atoms: _355  and  _356
REMARK  145  A    between atoms: _356  and  _357
REMARK  146  A    between atoms: _357  and  _358
REMARK  147  A    between atoms: _362  and  _364
REMARK  148  A    between atoms: _364  and  _365
REMARK  149  A    between atoms: _364  and  _367
REMARK  150  A    between atoms: _367  and  _368
REMARK  151  A    between atoms: _368  and  _369
REMARK  152  A    between atoms: _371  and  _373
REMARK  153  A    between atoms: _373  and  _374
REMARK  154  A    between atoms: _373  and  _376
REMARK  155  A    between atoms: _376  and  _377
REMARK  156  A    between atoms: _380  and  _382
REMARK  157  A    between atoms: _382  and  _383
REMARK  158  A    between atoms: _385  and  _387
REMARK  159  A    between atoms: _387  and  _388
REMARK  160  A    between atoms: _390  and  _392
REMARK  161  A    between atoms: _392  and  _393
REMARK  162  A    between atoms: _392  and  _395
REMARK  163  A    between atoms: _395  and  _396
REMARK  164  A    between atoms: _399  and  _401
REMARK  165  A    between atoms: _401  and  _402
REMARK  166  A    between atoms: _404  and  _406
REMARK  167  A    between atoms: _406  and  _407
REMARK  168  A    between atoms: _409  and  _411
REMARK  169  A    between atoms: _411  and  _412
REMARK  170  A    between atoms: _411  and  _414
REMARK  171  A    between atoms: _414  and  _415
REMARK  172  A    between atoms: _418  and  _420
REMARK  173  A    between atoms: _420  and  _421
REMARK  174  A    between atoms: _420  and  _423
REMARK  175  A    between atoms: _426  and  _428
REMARK  176  A    between atoms: _428  and  _429
REMARK  177  A    between atoms: _428  and  _431
REMARK  178  A    between atoms: _431  and  _432
REMARK  179  A    between atoms: _435  and  _437
REMARK  180  A    between atoms: _437  and  _438
REMARK  181  A    between atoms: _437  and  _440
REMARK  182  A    between atoms: _440  and  _441
REMARK  183  A    between atoms: _445  and  _446
REMARK  184  A    between atoms: _451  and  _453
REMARK  185  A    between atoms: _453  and  _454
REMARK  186  A    between atoms: _453  and  _456
REMARK  187  A    between atoms: _459  and  _461
REMARK  188  A    between atoms: _461  and  _462
REMARK  189  A    between atoms: _461  and  _464
REMARK  190  A    between atoms: _464  and  _465
REMARK  191  A    between atoms: _470  and  _472
REMARK  192  A    between atoms: _472  and  _473
REMARK  193  A    between atoms: _472  and  _475
REMARK  194  A    between atoms: _475  and  _476
REMARK  195  A    between atoms: _479  and  _481
REMARK  196  A    between atoms: _481  and  _482
REMARK  197  A    between atoms: _481  and  _484
REMARK  198  A    between atoms: _484  and  _485
REMARK  199  A    between atoms: _488  and  _490
REMARK  200  A    between atoms: _490  and  _491
REMARK  201  A    between atoms: _493  and  _495
REMARK  202  A    between atoms: _495  and  _496
REMARK  203  A    between atoms: _495  and  _498
REMARK  204  A    between atoms: _498  and  _499
REMARK  205  A    between atoms: _499  and  _500
REMARK  206  A    between atoms: _500  and  _501
REMARK  207  A    between atoms: _510  and  _512
REMARK  208  A    between atoms: _512  and  _513
REMARK  209  A    between atoms: _512  and  _515
REMARK  210  A    between atoms: _515  and  _516
REMARK                            x       y       z     vdW  Elec       q    Type
REMARK                         _______ _______ _______ _____ _____    ______ ____
ROOT
ATOM      1  O   HOH     1      15.770 -10.278  21.424  0.00  0.00    +0.000 OA
ENDROOT
TORSDOF 0
REMARK  Name = ../refined-set-2016/1d4l/1d4l_pocket.pdb
REMARK  210 active torsions:
REMARK  status: ('A' for Active; 'I' for Inactive)
REMARK    1  A    between atoms: _1  and  _3
REMARK    2  A    between atoms: _3  and  _4
REMARK    3  A    between atoms: _3  and  _6
REMARK    4  A    between atoms: _6  and  _7
REMARK    5  A    between atoms: _7  and  _8
REMARK    6  A    between atoms: _8  and  _9
REMARK    7  A    between atoms: _18  and  _20
REMARK    8  A    between atoms: _20  and  _21
REMARK    9  A    between atoms: _20  and  _23
REMARK   10  A    between atoms: _23  and  _24
REMARK   11  A    between atoms: _27  and  _29
REMARK   12  A    between atoms: _29  and  _30
REMARK   13  A    between atoms: _29  and  _32
REMARK   14  A    between atoms: _32  and  _33
REMARK   15  A    between atoms: _36  and  _38
REMARK   16  A    between atoms: _38  and  _39
REMARK   17  A    between atoms: _38  and  _41
REMARK   18  A    between atoms: _41  and  _42
REMARK   19  A    between atoms: _45  and  _47
REMARK   20  A    between atoms: _47  and  _48
REMARK   21  A    between atoms: _47  and  _50
REMARK   22  A    between atoms: _50  and  _51
REMARK   23  A    between atoms: _54  and  _56
REMARK   24  A    between atoms: _56  and  _57
REMARK   25  A    between atoms: _59  and  _61
REMARK   26  A    between atoms: _61  and  _62
REMARK   27  A    between atoms: _65  and  _67
REMARK   28  A    between atoms: _67  and  _68
REMARK   29  A    between atoms: _67  and  _70
REMARK   30  A    between atoms: _70  and  _71
REMARK   31  A    between atoms: _74  and  _76
REMARK   32  A    between atoms: _76  and  _77
REMARK   33  A    between atoms: _76  and  _79
REMARK   34  A    between atoms: _79  and  _80
REMARK   35  A    between atoms: _83  and  _85
REMARK   36  A    between atoms: _85  and  _86
REMARK   37  A    between atoms: _85  and  _88
REMARK   38  A    between atoms: _88  and  _89
REMARK   39  A    between atoms: _92  and  _94
REMARK   40  A    between atoms: _94  and  _95
REMARK   41  A    between atoms: _94  and  _97
REMARK   42  A    between atoms: _100  and  _102
REMARK   43  A    between atoms: _102  and  _103
REMARK   44  A    between atoms: _102  and  _105
REMARK   45  A    between atoms: _105  and  _106
REMARK   46  A    between atoms: _109  and  _111
REMARK   47  A    between atoms: _111  and  _112
REMARK   48  A    between atoms: _114  and  _116
REMARK   49  A    between atoms: _116  and  _117
REMARK   50  A    between atoms: _119  and  _121
REMARK   51  A    between atoms: _121  and  _122
REMARK   52  A    between atoms: _121  and  _124
REMARK   53  A    between atoms: _124  and  _125
REMARK   54  A    between atoms: _128  and  _130
REMARK   55  A    between atoms: _130  and  _131
REMARK   56  A    between atoms: _133  and  _135
REMARK   57  A    between atoms: _135  and  _136
REMARK   58  A    between atoms: _138  and  _140
REMARK   59  A    between atoms: _140  and  _141
REMARK   60  A    between atoms: _140  and  _143
REMARK   61  A    between atoms: _143  and  _144
REMARK   62  A    between atoms: _150  and  _152
REMARK   63  A    between atoms: _152  and  _153
REMARK   64  A    between atoms: _152  and  _155
REMARK   65  A    between atoms: _155  and  _156
REMARK   66  A    between atoms: _159  and  _161
REMARK   67  A    between atoms: _161  and  _162
REMARK   68  A    between atoms: _161  and  _164
REMARK   69  A    between atoms: _164  and  _165
REMARK   70  A    between atoms: _169  and  _170
REMARK   71  A    between atoms: _175  and  _177
REMARK   72  A    between atoms: _177  and  _178
REMARK   73  A    between atoms: _177  and  _180
REMARK   74  A    between atoms: _180  and  _181
REMARK   75  A    between atoms: _185  and  _186
REMARK   76  A    between atoms: _191  and  _193
REMARK   77  A    between atoms: _193  and  _194
REMARK   78  A    between atoms: _193  and  _196
REMARK   79  A    between atoms: _199  and  _201
REMARK   80  A    between atoms: _201  and  _202
REMARK   81  A    between atoms: _201  and  _204
REMARK   82  A    between atoms: _204  and  _205
REMARK   83  A    between atoms: _210  and  _212
REMARK   84  A    between atoms: _212  and  _213
REMARK   85  A    between atoms: _212  and  _215
REMARK   86  A    between atoms: _215  and  _216
REMARK   87  A    between atoms: _219  and  _221
REMARK   88  A    between atoms: _221  and  _222
REMARK   89  A    between atoms: _221  and  _224
REMARK   90  A    between atoms: _224  and  _225
REMARK   91  A    between atoms: _228  and  _230
REMARK   92  A    between atoms: _230  and  _231
REMARK   93  A    between atoms: _233  and  _235
REMARK   94  A    between atoms: _235  and  _236
REMARK   95  A    between atoms: _235  and  _238
REMARK   96  A    between atoms: _238  and  _239
REMARK   97  A    between atoms: _239  and  _240
REMARK   98  A    between atoms: _240  and  _241
REMARK   99  A    between atoms: _250  and  _252
REMARK  100  A    between atoms: _252  and  _253
REMARK  101  A    between atoms: _252  and  _255
REMARK  102  A    between atoms: _255  and  _256
REMARK  103  A    between atoms: _256  and  _257
REMARK  104  A    between atoms: _257  and  _258
REMARK  105  A    between atoms: _267  and  _269
REMARK  106  A    between atoms: _269  and  _270
REMARK  107  A    between atoms: _269  and  _272
REMARK  108  A    between atoms: _272  and  _273
REMARK  109  A    between atoms: _276  and  _278
REMARK  110  A    between atoms: _278  and  _279
REMARK  111  A    between atoms: _278  and  _281
REMARK  112  A    between atoms: _281  and  _282
REMARK  113  A    between atoms: _285  and  _287
REMARK  114  A    between atoms: _287  and  _288
REMARK  115  A    between atoms: _287  and  _290
REMARK  116  A    between atoms: _290  and  _291
REMARK  117  A    between atoms: _294  and  _296
REMARK  118  A    between atoms: _296  and  _297
REMARK  119  A    between atoms: _296  and  _299
REMARK  120  A    between atoms: _299  and  _300
REMARK  121  A    between atoms: _303  and  _305
REMARK  122  A    between atoms: _305  and  _306
REMARK  123  A    between atoms: _308  and  _310
REMARK  124  A    between atoms: _310  and  _311
REMARK  125  A    between atoms: _314  and  _316
REMARK  126  A    between atoms: _316  and  _317
REMARK  127  A    between atoms: _316  and  _319
REMARK  128  A    between atoms: _319  and  _320
REMARK  129  A    between atoms: _323  and  _325
REMARK  130  A    between atoms: _325  and  _326
REMARK  131  A    between atoms: _325  and  _328
REMARK  132  A    between atoms: _328  and  _329
REMARK  133  A    between atoms: _332  and  _334
REMARK  134  A    between atoms: _334  and  _335
REMARK  135  A    between atoms: _334  and  _337
REMARK  136  A    between atoms: _337  and  _338
REMARK  137  A    between atoms: _341  and  _343
REMARK  138  A    between atoms: _343  and  _344
REMARK  139  A    between atoms: _343  and  _346
REMARK  140  A    between atoms: _349  and  _351
REMARK  141  A    between atoms: _351  and  _352
REMARK  142  A    between atoms: _351  and  _354
REMARK  143  A    between atoms: _354  and  _355
REMARK  144  A    between atoms: _355  and  _356
REMARK  145  A    between atoms: _356  and  _357
REMARK  146  A    between atoms: _357  and  _358
REMARK  147  A    between atoms: _362  and  _364
REMARK  148  A    between atoms: _364  and  _365
REMARK  149  A    between atoms: _364  and  _367
REMARK  150  A    between atoms: _367  and  _368
REMARK  151  A    between atoms: _368  and  _369
REMARK  152  A    between atoms: _371  and  _373
REMARK  153  A    between atoms: _373  and  _374
REMARK  154  A    between atoms: _373  and  _376
REMARK  155  A    between atoms: _376  and  _377
REMARK  156  A    between atoms: _380  and  _382
REMARK  157  A    between atoms: _382  and  _383
REMARK  158  A    between atoms: _385  and  _387
REMARK  159  A    between atoms: _387  and  _388
REMARK  160  A    between atoms: _390  and  _392
REMARK  161  A    between atoms: _392  and  _393
REMARK  162  A    between atoms: _392  and  _395
REMARK  163  A    between atoms: _395  and  _396
REMARK  164  A    between atoms: _399  and  _401
REMARK  165  A    between atoms: _401  and  _402
REMARK  166  A    between atoms: _404  and  _406
REMARK  167  A    between atoms: _406  and  _407
REMARK  168  A    between atoms: _409  and  _411
REMARK  169  A    between atoms: _411  and  _412
REMARK  170  A    between atoms: _411  and  _414
REMARK  171  A    between atoms: _414  and  _415
REMARK  172  A    between atoms: _418  and  _420
REMARK  173  A    between atoms: _420  and  _421
REMARK  174  A    between atoms: _420  and  _423
REMARK  175  A    between atoms: _426  and  _428
REMARK  176  A    between atoms: _428  and  _429
REMARK  177  A    between atoms: _428  and  _431
REMARK  178  A    between atoms: _431  and  _432
REMARK  179  A    between atoms: _435  and  _437
REMARK  180  A    between atoms: _437  and  _438
REMARK  181  A    between atoms: _437  and  _440
REMARK  182  A    between atoms: _440  and  _441
REMARK  183  A    between atoms: _445  and  _446
REMARK  184  A    between atoms: _451  and  _453
REMARK  185  A    between atoms: _453  and  _454
REMARK  186  A    between atoms: _453  and  _456
REMARK  187  A    between atoms: _459  and  _461
REMARK  188  A    between atoms: _461  and  _462
REMARK  189  A    between atoms: _461  and  _464
REMARK  190  A    between atoms: _464  and  _465
REMARK  191  A    between atoms: _470  and  _472
REMARK  192  A    between atoms: _472  and  _473
REMARK  193  A    between atoms: _472  and  _475
REMARK  194  A    between atoms: _475  and  _476
REMARK  195  A    between atoms: _479  and  _481
REMARK  196  A    between atoms: _481  and  _482
REMARK  197  A    between atoms: _481  and  _484
REMARK  198  A    between atoms: _484  and  _485
REMARK  199  A    between atoms: _488  and  _490
REMARK  200  A    between atoms: _490  and  _491
REMARK  201  A    between atoms: _493  and  _495
REMARK  202  A    between atoms: _495  and  _496
REMARK  203  A    between atoms: _495  and  _498
REMARK  204  A    between atoms: _498  and  _499
REMARK  205  A    between atoms: _499  and  _500
REMARK  206  A    between atoms: _500  and  _501
REMARK  207  A    between atoms: _510  and  _512
REMARK  208  A    between atoms: _512  and  _513
REMARK  209  A    between atoms: _512  and  _515
REMARK  210  A    between atoms: _515  and  _516
REMARK                            x       y       z     vdW  Elec       q    Type
REMARK                         _______ _______ _______ _____ _____    ______ ____
ROOT
ATOM      1  O   HOH     1      -0.173  -8.022   8.900  0.00  0.00    +0.000 OA
ENDROOT
TORSDOF 0
