REMARK  Name = ../refined-set-2016/1m0o/1m0o_pocket.pdb
REMARK  230 active torsions:
REMARK  status: ('A' for Active; 'I' for Inactive)
REMARK    1  A    between atoms: _1  and  _3
REMARK    2  A    between atoms: _3  and  _4
REMARK    3  A    between atoms: _3  and  _6
REMARK    4  A    between atoms: _6  and  _7
REMARK    5  A    between atoms: _10  and  _12
REMARK    6  A    between atoms: _12  and  _13
REMARK    7  A    between atoms: _15  and  _17
REMARK    8  A    between atoms: _17  and  _18
REMARK    9  A    between atoms: _17  and  _20
REMARK   10  A    between atoms: _20  and  _21
REMARK   11  A    between atoms: _21  and  _22
REMARK   12  A    between atoms: _27  and  _29
REMARK   13  A    between atoms: _29  and  _30
REMARK   14  A    between atoms: _29  and  _32
REMARK   15  A    between atoms: _32  and  _33
REMARK   16  A    between atoms: _33  and  _34
REMARK   17  A    between atoms: _36  and  _38
REMARK   18  A    between atoms: _38  and  _39
REMARK   19  A    between atoms: _38  and  _41
REMARK   20  A    between atoms: _41  and  _42
REMARK   21  A    between atoms: _44  and  _46
REMARK   22  A    between atoms: _46  and  _47
REMARK   23  A    between atoms: _46  and  _49
REMARK   24  A    between atoms: _49  and  _50
REMARK   25  A    between atoms: _52  and  _54
REMARK   26  A    between atoms: _54  and  _55
REMARK   27  A    between atoms: _54  and  _57
REMARK   28  A    between atoms: _57  and  _58
REMARK   29  A    between atoms: _61  and  _63
REMARK   30  A    between atoms: _63  and  _64
REMARK   31  A    between atoms: _66  and  _68
REMARK   32  A    between atoms: _68  and  _69
REMARK   33  A    between atoms: _72  and  _74
REMARK   34  A    between atoms: _74  and  _75
REMARK   35  A    between atoms: _74  and  _77
REMARK   36  A    between atoms: _77  and  _78
REMARK   37  A    between atoms: _78  and  _79
REMARK   38  A    between atoms: _82  and  _84
REMARK   39  A    between atoms: _84  and  _85
REMARK   40  A    between atoms: _84  and  _87
REMARK   41  A    between atoms: _87  and  _88
REMARK   42  A    between atoms: _90  and  _92
REMARK   43  A    between atoms: _92  and  _93
REMARK   44  A    between atoms: _92  and  _95
REMARK   45  A    between atoms: _95  and  _96
REMARK   46  A    between atoms: _101  and  _103
REMARK   47  A    between atoms: _103  and  _104
REMARK   48  A    between atoms: _103  and  _106
REMARK   49  A    between atoms: _106  and  _107
REMARK   50  A    between atoms: _107  and  _108
REMARK   51  A    between atoms: _111  and  _113
REMARK   52  A    between atoms: _113  and  _114
REMARK   53  A    between atoms: _113  and  _116
REMARK   54  A    between atoms: _116  and  _117
REMARK   55  A    between atoms: _119  and  _121
REMARK   56  A    between atoms: _121  and  _122
REMARK   57  A    between atoms: _121  and  _124
REMARK   58  A    between atoms: _124  and  _125
REMARK   59  A    between atoms: _135  and  _137
REMARK   60  A    between atoms: _137  and  _138
REMARK   61  A    between atoms: _137  and  _140
REMARK   62  A    between atoms: _140  and  _141
REMARK   63  A    between atoms: _146  and  _148
REMARK   64  A    between atoms: _148  and  _149
REMARK   65  A    between atoms: _151  and  _153
REMARK   66  A    between atoms: _153  and  _154
REMARK   67  A    between atoms: _153  and  _156
REMARK   68  A    between atoms: _156  and  _157
REMARK   69  A    between atoms: _157  and  _158
REMARK   70  A    between atoms: _160  and  _162
REMARK   71  A    between atoms: _162  and  _163
REMARK   72  A    between atoms: _162  and  _165
REMARK   73  A    between atoms: _165  and  _166
REMARK   74  A    between atoms: _169  and  _171
REMARK   75  A    between atoms: _171  and  _172
REMARK   76  A    between atoms: _175  and  _177
REMARK   77  A    between atoms: _177  and  _178
REMARK   78  A    between atoms: _177  and  _180
REMARK   79  A    between atoms: _180  and  _181
REMARK   80  A    between atoms: _184  and  _186
REMARK   81  A    between atoms: _186  and  _187
REMARK   82  A    between atoms: _186  and  _189
REMARK   83  A    between atoms: _189  and  _190
REMARK   84  A    between atoms: _192  and  _194
REMARK   85  A    between atoms: _194  and  _195
REMARK   86  A    between atoms: _198  and  _200
REMARK   87  A    between atoms: _200  and  _201
REMARK   88  A    between atoms: _200  and  _203
REMARK   89  A    between atoms: _203  and  _205
REMARK   90  A    between atoms: _207  and  _209
REMARK   91  A    between atoms: _209  and  _210
REMARK   92  A    between atoms: _213  and  _215
REMARK   93  A    between atoms: _215  and  _216
REMARK   94  A    between atoms: _215  and  _218
REMARK   95  A    between atoms: _218  and  _219
REMARK   96  A    between atoms: _219  and  _220
REMARK   97  A    between atoms: _224  and  _225
REMARK   98  A    between atoms: _230  and  _232
REMARK   99  A    between atoms: _232  and  _233
REMARK  100  A    between atoms: _232  and  _235
REMARK  101  A    between atoms: _235  and  _236
REMARK  102  A    between atoms: _239  and  _241
REMARK  103  A    between atoms: _241  and  _242
REMARK  104  A    between atoms: _241  and  _244
REMARK  105  A    between atoms: _244  and  _245
REMARK  106  A    between atoms: _248  and  _250
REMARK  107  A    between atoms: _250  and  _251
REMARK  108  A    between atoms: _250  and  _253
REMARK  109  A    between atoms: _253  and  _254
REMARK  110  A    between atoms: _256  and  _258
REMARK  111  A    between atoms: _258  and  _259
REMARK  112  A    between atoms: _258  and  _261
REMARK  113  A    between atoms: _261  and  _262
REMARK  114  A    between atoms: _264  and  _266
REMARK  115  A    between atoms: _266  and  _267
REMARK  116  A    between atoms: _269  and  _271
REMARK  117  A    between atoms: _271  and  _272
REMARK  118  A    between atoms: _274  and  _276
REMARK  119  A    between atoms: _276  and  _277
REMARK  120  A    between atoms: _276  and  _279
REMARK  121  A    between atoms: _279  and  _280
REMARK  122  A    between atoms: _283  and  _285
REMARK  123  A    between atoms: _285  and  _286
REMARK  124  A    between atoms: _285  and  _288
REMARK  125  A    between atoms: _288  and  _289
REMARK  126  A    between atoms: _289  and  _290
REMARK  127  A    between atoms: _293  and  _295
REMARK  128  A    between atoms: _295  and  _296
REMARK  129  A    between atoms: _299  and  _301
REMARK  130  A    between atoms: _301  and  _302
REMARK  131  A    between atoms: _301  and  _304
REMARK  132  A    between atoms: _304  and  _305
REMARK  133  A    between atoms: _305  and  _306
REMARK  134  A    between atoms: _311  and  _313
REMARK  135  A    between atoms: _313  and  _314
REMARK  136  A    between atoms: _313  and  _316
REMARK  137  A    between atoms: _316  and  _317
REMARK  138  A    between atoms: _320  and  _322
REMARK  139  A    between atoms: _322  and  _323
REMARK  140  A    between atoms: _322  and  _325
REMARK  141  A    between atoms: _325  and  _326
REMARK  142  A    between atoms: _329  and  _331
REMARK  143  A    between atoms: _331  and  _332
REMARK  144  A    between atoms: _331  and  _334
REMARK  145  A    between atoms: _334  and  _335
REMARK  146  A    between atoms: _338  and  _340
REMARK  147  A    between atoms: _340  and  _341
REMARK  148  A    between atoms: _340  and  _343
REMARK  149  A    between atoms: _343  and  _344
REMARK  150  A    between atoms: _346  and  _348
REMARK  151  A    between atoms: _348  and  _349
REMARK  152  A    between atoms: _348  and  _351
REMARK  153  A    between atoms: _351  and  _352
REMARK  154  A    between atoms: _352  and  _353
REMARK  155  A    between atoms: _353  and  _354
REMARK  156  A    between atoms: _354  and  _355
REMARK  157  A    between atoms: _360  and  _361
REMARK  158  A    between atoms: _366  and  _368
REMARK  159  A    between atoms: _368  and  _369
REMARK  160  A    between atoms: _368  and  _371
REMARK  161  A    between atoms: _371  and  _372
REMARK  162  A    between atoms: _375  and  _377
REMARK  163  A    between atoms: _377  and  _378
REMARK  164  A    between atoms: _381  and  _383
REMARK  165  A    between atoms: _383  and  _384
REMARK  166  A    between atoms: _383  and  _386
REMARK  167  A    between atoms: _386  and  _387
REMARK  168  A    between atoms: _392  and  _394
REMARK  169  A    between atoms: _394  and  _395
REMARK  170  A    between atoms: _394  and  _397
REMARK  171  A    between atoms: _400  and  _402
REMARK  172  A    between atoms: _402  and  _403
REMARK  173  A    between atoms: _402  and  _405
REMARK  174  A    between atoms: _405  and  _406
REMARK  175  A    between atoms: _406  and  _407
REMARK  176  A    between atoms: _407  and  _408
REMARK  177  A    between atoms: _417  and  _419
REMARK  178  A    between atoms: _419  and  _420
REMARK  179  A    between atoms: _419  and  _422
REMARK  180  A    between atoms: _422  and  _423
REMARK  181  A    between atoms: _428  and  _430
REMARK  182  A    between atoms: _430  and  _431
REMARK  183  A    between atoms: _430  and  _433
REMARK  184  A    between atoms: _433  and  _434
REMARK  185  A    between atoms: _440  and  _442
REMARK  186  A    between atoms: _442  and  _443
REMARK  187  A    between atoms: _442  and  _445
REMARK  188  A    between atoms: _445  and  _446
REMARK  189  A    between atoms: _448  and  _450
REMARK  190  A    between atoms: _450  and  _451
REMARK  191  A    between atoms: _450  and  _453
REMARK  192  A    between atoms: _453  and  _454
REMARK  193  A    between atoms: _454  and  _455
REMARK  194  A    between atoms: _458  and  _460
REMARK  195  A    between atoms: _460  and  _461
REMARK  196  A    between atoms: _460  and  _463
REMARK  197  A    between atoms: _463  and  _464
REMARK  198  A    between atoms: _466  and  _468
REMARK  199  A    between atoms: _468  and  _469
REMARK  200  A    between atoms: _468  and  _471
REMARK  201  A    between atoms: _471  and  _472
REMARK  202  A    between atoms: _472  and  _473
REMARK  203  A    between atoms: _476  and  _478
REMARK  204  A    between atoms: _478  and  _479
REMARK  205  A    between atoms: _478  and  _481
REMARK  206  A    between atoms: _481  and  _482
REMARK  207  A    between atoms: _485  and  _487
REMARK  208  A    between atoms: _487  and  _488
REMARK  209  A    between atoms: _487  and  _490
REMARK  210  A    between atoms: _490  and  _491
REMARK  211  A    between atoms: _497  and  _499
REMARK  212  A    between atoms: _499  and  _500
REMARK  213  A    between atoms: _499  and  _502
REMARK  214  A    between atoms: _502  and  _503
REMARK  215  A    between atoms: _508  and  _509
REMARK  216  A    between atoms: _511  and  _513
REMARK  217  A    between atoms: _513  and  _514
REMARK  218  A    between atoms: _513  and  _516
REMARK  219  A    between atoms: _516  and  _517
REMARK  220  A    between atoms: _520  and  _522
REMARK  221  A    between atoms: _522  and  _523
REMARK  222  A    between atoms: _522  and  _525
REMARK  223  A    between atoms: _525  and  _526
REMARK  224  A    between atoms: _529  and  _531
REMARK  225  A    between atoms: _531  and  _532
REMARK  226  A    between atoms: _531  and  _534
REMARK  227  A    between atoms: _534  and  _535
REMARK  228  A    between atoms: _540  and  _542
REMARK  229  A    between atoms: _542  and  _543
REMARK  230  A    between atoms: _542  and  _545
REMARK                            x       y       z     vdW  Elec       q    Type
REMARK                         _______ _______ _______ _____ _____    ______ ____
ROOT
ATOM      1  CA  THR A   1       6.094  47.246  22.149  0.00  0.00    +0.160 C 
ENDROOT
BRANCH   1   2
ATOM      2  N   THR A   1       4.995  46.593  22.848  0.00  0.00    -0.237 NA
ATOM      3  H   THR A   1       5.131  45.692  23.349  0.00  0.00    +0.142 HD
ENDBRANCH   1   2
BRANCH   1   4
ATOM      4  CB  THR A   1       7.153  47.808  23.096  0.00  0.00    +0.134 C 
ATOM      5  CG2 THR A   1       6.543  48.745  24.008  0.00  0.00    +0.034 C 
BRANCH   4   6
ATOM      6  OG1 THR A   1       7.733  46.756  23.878  0.00  0.00    -0.383 OA
ATOM      7  HG1 THR A   1       8.157  46.094  23.276  0.00  0.00    +0.210 HD
ENDBRANCH   4   6
ENDBRANCH   1   4
BRANCH   1   8
ATOM      8  C   THR A   1       6.730  46.285  21.232  0.00  0.00    +0.227 C 
ATOM      9  O   THR A   1       7.737  46.616  20.649  0.00  0.00    -0.287 OA
ENDBRANCH   1   8
TORSDOF 4
REMARK  Name = ../refined-set-2016/1m0o/1m0o_pocket.pdb
REMARK  230 active torsions:
REMARK  status: ('A' for Active; 'I' for Inactive)
REMARK    1  A    between atoms: _1  and  _3
REMARK    2  A    between atoms: _3  and  _4
REMARK    3  A    between atoms: _3  and  _6
REMARK    4  A    between atoms: _6  and  _7
REMARK    5  A    between atoms: _10  and  _12
REMARK    6  A    between atoms: _12  and  _13
REMARK    7  A    between atoms: _15  and  _17
REMARK    8  A    between atoms: _17  and  _18
REMARK    9  A    between atoms: _17  and  _20
REMARK   10  A    between atoms: _20  and  _21
REMARK   11  A    between atoms: _21  and  _22
REMARK   12  A    between atoms: _27  and  _29
REMARK   13  A    between atoms: _29  and  _30
REMARK   14  A    between atoms: _29  and  _32
REMARK   15  A    between atoms: _32  and  _33
REMARK   16  A    between atoms: _33  and  _34
REMARK   17  A    between atoms: _36  and  _38
REMARK   18  A    between atoms: _38  and  _39
REMARK   19  A    between atoms: _38  and  _41
REMARK   20  A    between atoms: _41  and  _42
REMARK   21  A    between atoms: _44  and  _46
REMARK   22  A    between atoms: _46  and  _47
REMARK   23  A    between atoms: _46  and  _49
REMARK   24  A    between atoms: _49  and  _50
REMARK   25  A    between atoms: _52  and  _54
REMARK   26  A    between atoms: _54  and  _55
REMARK   27  A    between atoms: _54  and  _57
REMARK   28  A    between atoms: _57  and  _58
REMARK   29  A    between atoms: _61  and  _63
REMARK   30  A    between atoms: _63  and  _64
REMARK   31  A    between atoms: _66  and  _68
REMARK   32  A    between atoms: _68  and  _69
REMARK   33  A    between atoms: _72  and  _74
REMARK   34  A    between atoms: _74  and  _75
REMARK   35  A    between atoms: _74  and  _77
REMARK   36  A    between atoms: _77  and  _78
REMARK   37  A    between atoms: _78  and  _79
REMARK   38  A    between atoms: _82  and  _84
REMARK   39  A    between atoms: _84  and  _85
REMARK   40  A    between atoms: _84  and  _87
REMARK   41  A    between atoms: _87  and  _88
REMARK   42  A    between atoms: _90  and  _92
REMARK   43  A    between atoms: _92  and  _93
REMARK   44  A    between atoms: _92  and  _95
REMARK   45  A    between atoms: _95  and  _96
REMARK   46  A    between atoms: _101  and  _103
REMARK   47  A    between atoms: _103  and  _104
REMARK   48  A    between atoms: _103  and  _106
REMARK   49  A    between atoms: _106  and  _107
REMARK   50  A    between atoms: _107  and  _108
REMARK   51  A    between atoms: _111  and  _113
REMARK   52  A    between atoms: _113  and  _114
REMARK   53  A    between atoms: _113  and  _116
REMARK   54  A    between atoms: _116  and  _117
REMARK   55  A    between atoms: _119  and  _121
REMARK   56  A    between atoms: _121  and  _122
REMARK   57  A    between atoms: _121  and  _124
REMARK   58  A    between atoms: _124  and  _125
REMARK   59  A    between atoms: _135  and  _137
REMARK   60  A    between atoms: _137  and  _138
REMARK   61  A    between atoms: _137  and  _140
REMARK   62  A    between atoms: _140  and  _141
REMARK   63  A    between atoms: _146  and  _148
REMARK   64  A    between atoms: _148  and  _149
REMARK   65  A    between atoms: _151  and  _153
REMARK   66  A    between atoms: _153  and  _154
REMARK   67  A    between atoms: _153  and  _156
REMARK   68  A    between atoms: _156  and  _157
REMARK   69  A    between atoms: _157  and  _158
REMARK   70  A    between atoms: _160  and  _162
REMARK   71  A    between atoms: _162  and  _163
REMARK   72  A    between atoms: _162  and  _165
REMARK   73  A    between atoms: _165  and  _166
REMARK   74  A    between atoms: _169  and  _171
REMARK   75  A    between atoms: _171  and  _172
REMARK   76  A    between atoms: _175  and  _177
REMARK   77  A    between atoms: _177  and  _178
REMARK   78  A    between atoms: _177  and  _180
REMARK   79  A    between atoms: _180  and  _181
REMARK   80  A    between atoms: _184  and  _186
REMARK   81  A    between atoms: _186  and  _187
REMARK   82  A    between atoms: _186  and  _189
REMARK   83  A    between atoms: _189  and  _190
REMARK   84  A    between atoms: _192  and  _194
REMARK   85  A    between atoms: _194  and  _195
REMARK   86  A    between atoms: _198  and  _200
REMARK   87  A    between atoms: _200  and  _201
REMARK   88  A    between atoms: _200  and  _203
REMARK   89  A    between atoms: _203  and  _205
REMARK   90  A    between atoms: _207  and  _209
REMARK   91  A    between atoms: _209  and  _210
REMARK   92  A    between atoms: _213  and  _215
REMARK   93  A    between atoms: _215  and  _216
REMARK   94  A    between atoms: _215  and  _218
REMARK   95  A    between atoms: _218  and  _219
REMARK   96  A    between atoms: _219  and  _220
REMARK   97  A    between atoms: _224  and  _225
REMARK   98  A    between atoms: _230  and  _232
REMARK   99  A    between atoms: _232  and  _233
REMARK  100  A    between atoms: _232  and  _235
REMARK  101  A    between atoms: _235  and  _236
REMARK  102  A    between atoms: _239  and  _241
REMARK  103  A    between atoms: _241  and  _242
REMARK  104  A    between atoms: _241  and  _244
REMARK  105  A    between atoms: _244  and  _245
REMARK  106  A    between atoms: _248  and  _250
REMARK  107  A    between atoms: _250  and  _251
REMARK  108  A    between atoms: _250  and  _253
REMARK  109  A    between atoms: _253  and  _254
REMARK  110  A    between atoms: _256  and  _258
REMARK  111  A    between atoms: _258  and  _259
REMARK  112  A    between atoms: _258  and  _261
REMARK  113  A    between atoms: _261  and  _262
REMARK  114  A    between atoms: _264  and  _266
REMARK  115  A    between atoms: _266  and  _267
REMARK  116  A    between atoms: _269  and  _271
REMARK  117  A    between atoms: _271  and  _272
REMARK  118  A    between atoms: _274  and  _276
REMARK  119  A    between atoms: _276  and  _277
REMARK  120  A    between atoms: _276  and  _279
REMARK  121  A    between atoms: _279  and  _280
REMARK  122  A    between atoms: _283  and  _285
REMARK  123  A    between atoms: _285  and  _286
REMARK  124  A    between atoms: _285  and  _288
REMARK  125  A    between atoms: _288  and  _289
REMARK  126  A    between atoms: _289  and  _290
REMARK  127  A    between atoms: _293  and  _295
REMARK  128  A    between atoms: _295  and  _296
REMARK  129  A    between atoms: _299  and  _301
REMARK  130  A    between atoms: _301  and  _302
REMARK  131  A    between atoms: _301  and  _304
REMARK  132  A    between atoms: _304  and  _305
REMARK  133  A    between atoms: _305  and  _306
REMARK  134  A    between atoms: _311  and  _313
REMARK  135  A    between atoms: _313  and  _314
REMARK  136  A    between atoms: _313  and  _316
REMARK  137  A    between atoms: _316  and  _317
REMARK  138  A    between atoms: _320  and  _322
REMARK  139  A    between atoms: _322  and  _323
REMARK  140  A    between atoms: _322  and  _325
REMARK  141  A    between atoms: _325  and  _326
REMARK  142  A    between atoms: _329  and  _331
REMARK  143  A    between atoms: _331  and  _332
REMARK  144  A    between atoms: _331  and  _334
REMARK  145  A    between atoms: _334  and  _335
REMARK  146  A    between atoms: _338  and  _340
REMARK  147  A    between atoms: _340  and  _341
REMARK  148  A    between atoms: _340  and  _343
REMARK  149  A    between atoms: _343  and  _344
REMARK  150  A    between atoms: _346  and  _348
REMARK  151  A    between atoms: _348  and  _349
REMARK  152  A    between atoms: _348  and  _351
REMARK  153  A    between atoms: _351  and  _352
REMARK  154  A    between atoms: _352  and  _353
REMARK  155  A    between atoms: _353  and  _354
REMARK  156  A    between atoms: _354  and  _355
REMARK  157  A    between atoms: _360  and  _361
REMARK  158  A    between atoms: _366  and  _368
REMARK  159  A    between atoms: _368  and  _369
REMARK  160  A    between atoms: _368  and  _371
REMARK  161  A    between atoms: _371  and  _372
REMARK  162  A    between atoms: _375  and  _377
REMARK  163  A    between atoms: _377  and  _378
REMARK  164  A    between atoms: _381  and  _383
REMARK  165  A    between atoms: _383  and  _384
REMARK  166  A    between atoms: _383  and  _386
REMARK  167  A    between atoms: _386  and  _387
REMARK  168  A    between atoms: _392  and  _394
REMARK  169  A    between atoms: _394  and  _395
REMARK  170  A    between atoms: _394  and  _397
REMARK  171  A    between atoms: _400  and  _402
REMARK  172  A    between atoms: _402  and  _403
REMARK  173  A    between atoms: _402  and  _405
REMARK  174  A    between atoms: _405  and  _406
REMARK  175  A    between atoms: _406  and  _407
REMARK  176  A    between atoms: _407  and  _408
REMARK  177  A    between atoms: _417  and  _419
REMARK  178  A    between atoms: _419  and  _420
REMARK  179  A    between atoms: _419  and  _422
REMARK  180  A    between atoms: _422  and  _423
REMARK  181  A    between atoms: _428  and  _430
REMARK  182  A    between atoms: _430  and  _431
REMARK  183  A    between atoms: _430  and  _433
REMARK  184  A    between atoms: _433  and  _434
REMARK  185  A    between atoms: _440  and  _442
REMARK  186  A    between atoms: _442  and  _443
REMARK  187  A    between atoms: _442  and  _445
REMARK  188  A    between atoms: _445  and  _446
REMARK  189  A    between atoms: _448  and  _450
REMARK  190  A    between atoms: _450  and  _451
REMARK  191  A    between atoms: _450  and  _453
REMARK  192  A    between atoms: _453  and  _454
REMARK  193  A    between atoms: _454  and  _455
REMARK  194  A    between atoms: _458  and  _460
REMARK  195  A    between atoms: _460  and  _461
REMARK  196  A    between atoms: _460  and  _463
REMARK  197  A    between atoms: _463  and  _464
REMARK  198  A    between atoms: _466  and  _468
REMARK  199  A    between atoms: _468  and  _469
REMARK  200  A    between atoms: _468  and  _471
REMARK  201  A    between atoms: _471  and  _472
REMARK  202  A    between atoms: _472  and  _473
REMARK  203  A    between atoms: _476  and  _478
REMARK  204  A    between atoms: _478  and  _479
REMARK  205  A    between atoms: _478  and  _481
REMARK  206  A    between atoms: _481  and  _482
REMARK  207  A    between atoms: _485  and  _487
REMARK  208  A    between atoms: _487  and  _488
REMARK  209  A    between atoms: _487  and  _490
REMARK  210  A    between atoms: _490  and  _491
REMARK  211  A    between atoms: _497  and  _499
REMARK  212  A    between atoms: _499  and  _500
REMARK  213  A    between atoms: _499  and  _502
REMARK  214  A    between atoms: _502  and  _503
REMARK  215  A    between atoms: _508  and  _509
REMARK  216  A    between atoms: _511  and  _513
REMARK  217  A    between atoms: _513  and  _514
REMARK  218  A    between atoms: _513  and  _516
REMARK  219  A    between atoms: _516  and  _517
REMARK  220  A    between atoms: _520  and  _522
REMARK  221  A    between atoms: _522  and  _523
REMARK  222  A    between atoms: _522  and  _525
REMARK  223  A    between atoms: _525  and  _526
REMARK  224  A    between atoms: _529  and  _531
REMARK  225  A    between atoms: _531  and  _532
REMARK  226  A    between atoms: _531  and  _534
REMARK  227  A    between atoms: _534  and  _535
REMARK  228  A    between atoms: _540  and  _542
REMARK  229  A    between atoms: _542  and  _543
REMARK  230  A    between atoms: _542  and  _545
REMARK                            x       y       z     vdW  Elec       q    Type
REMARK                         _______ _______ _______ _____ _____    ______ ____
ROOT
ATOM      1  C   GLN A   2      11.801  46.594  20.077  0.00  0.00    +0.241 C 
ATOM      2  N   MET A   3      10.478  46.807  19.871  0.00  0.00    -0.297 N 
ATOM      3  H   MET A   3       9.814  46.566  20.634  0.00  0.00    +0.150 HD
ATOM      4  O   GLN A   2      12.658  46.765  19.197  0.00  0.00    -0.273 OA
ENDROOT
BRANCH   2   5
ATOM      5  CA  MET A   3       9.916  47.382  18.578  0.00  0.00    +0.149 C 
BRANCH   5   6
ATOM      6  C   MET A   3      10.247  46.578  17.306  0.00  0.00    +0.241 C 
ATOM      7  N   SER A   4      10.297  45.247  17.379  0.00  0.00    -0.296 N 
ATOM      8  H   SER A   4      10.042  44.768  18.266  0.00  0.00    +0.150 HD
ATOM      9  O   MET A   3      10.507  47.170  16.283  0.00  0.00    -0.273 OA
BRANCH   7  10
ATOM     10  CA  SER A   4      10.707  44.459  16.221  0.00  0.00    +0.166 C 
BRANCH  10  11
ATOM     11  C   SER A   4       9.769  43.419  15.763  0.00  0.00    +0.229 C 
ATOM     12  O   SER A   4       9.696  43.197  14.550  0.00  0.00    -0.286 OA
ENDBRANCH  10  11
BRANCH  10  13
ATOM     13  CB  SER A   4      12.054  43.713  16.488  0.00  0.00    +0.165 C 
BRANCH  13  14
ATOM     14  OG  SER A   4      13.053  44.639  16.702  0.00  0.00    -0.380 OA
ATOM     15  H   SER A   4      12.822  45.197  17.486  0.00  0.00    +0.211 HD
ENDBRANCH  13  14
ENDBRANCH  10  13
ENDBRANCH   7  10
ENDBRANCH   5   6
BRANCH   5  16
ATOM     16  CB  MET A   3      10.474  48.793  18.322  0.00  0.00    +0.041 C 
BRANCH  16  17
ATOM     17  CG  MET A   3      10.665  49.710  19.562  0.00  0.00    +0.060 C 
BRANCH  17  18
ATOM     18  SD  MET A   3       9.023  50.052  20.321  0.00  0.00    -0.139 S 
ATOM     19  CE  MET A   3       8.692  51.716  19.770  0.00  0.00    +0.069 C 
ENDBRANCH  17  18
ENDBRANCH  16  17
ENDBRANCH   5  16
ENDBRANCH   2   5
BRANCH   1  20
ATOM     20  CA  GLN A   2      12.219  45.997  21.433  0.00  0.00    +0.149 C 
BRANCH  20  23
ATOM     21  C   GLY A   1      10.439  44.627  22.196  0.00  0.00    +0.240 C 
ATOM     22  O   GLY A   1       9.899  45.596  22.735  0.00  0.00    -0.274 OA
ATOM     23  N   GLN A   2      11.576  44.711  21.535  0.00  0.00    -0.297 N 
ATOM     24  H   GLN A   2      12.000  43.868  21.097  0.00  0.00    +0.150 HD
BRANCH  21  25
ATOM     25  CA  GLY A   1       9.778  43.309  22.181  0.00  0.00    +0.169 C 
BRANCH  25  26
ATOM     26  N   GLY A   1       8.420  43.602  21.695  0.00  0.00    -0.236 NA
ATOM     27  H   GLY A   1       7.637  43.596  22.379  0.00  0.00    +0.142 HD
ENDBRANCH  25  26
ENDBRANCH  21  25
ENDBRANCH  20  23
BRANCH  20  28
ATOM     28  CB  GLN A   2      13.751  45.828  21.510  0.00  0.00    +0.039 C 
BRANCH  28  29
ATOM     29  CG  GLN A   2      14.512  47.125  21.868  0.00  0.00    +0.087 C 
BRANCH  29  30
ATOM     30  CD  GLN A   2      13.954  47.839  23.072  0.00  0.00    +0.219 C 
ATOM     31  OE1 GLN A   2      13.891  47.272  24.144  0.00  0.00    -0.275 OA
ATOM     32  NE2 GLN A   2      13.648  49.105  22.922  0.00  0.00    -0.329 N 
ATOM     33 HE21 GLN A   2      13.336  49.665  23.741  0.00  0.00    +0.145 HD
ATOM     34 HE22 GLN A   2      13.717  49.549  21.984  0.00  0.00    +0.145 HD
ENDBRANCH  29  30
ENDBRANCH  28  29
ENDBRANCH  20  28
ENDBRANCH   1  20
TORSDOF 16
REMARK  Name = ../refined-set-2016/1m0o/1m0o_pocket.pdb
REMARK  230 active torsions:
REMARK  status: ('A' for Active; 'I' for Inactive)
REMARK    1  A    between atoms: _1  and  _3
REMARK    2  A    between atoms: _3  and  _4
REMARK    3  A    between atoms: _3  and  _6
REMARK    4  A    between atoms: _6  and  _7
REMARK    5  A    between atoms: _10  and  _12
REMARK    6  A    between atoms: _12  and  _13
REMARK    7  A    between atoms: _15  and  _17
REMARK    8  A    between atoms: _17  and  _18
REMARK    9  A    between atoms: _17  and  _20
REMARK   10  A    between atoms: _20  and  _21
REMARK   11  A    between atoms: _21  and  _22
REMARK   12  A    between atoms: _27  and  _29
REMARK   13  A    between atoms: _29  and  _30
REMARK   14  A    between atoms: _29  and  _32
REMARK   15  A    between atoms: _32  and  _33
REMARK   16  A    between atoms: _33  and  _34
REMARK   17  A    between atoms: _36  and  _38
REMARK   18  A    between atoms: _38  and  _39
REMARK   19  A    between atoms: _38  and  _41
REMARK   20  A    between atoms: _41  and  _42
REMARK   21  A    between atoms: _44  and  _46
REMARK   22  A    between atoms: _46  and  _47
REMARK   23  A    between atoms: _46  and  _49
REMARK   24  A    between atoms: _49  and  _50
REMARK   25  A    between atoms: _52  and  _54
REMARK   26  A    between atoms: _54  and  _55
REMARK   27  A    between atoms: _54  and  _57
REMARK   28  A    between atoms: _57  and  _58
REMARK   29  A    between atoms: _61  and  _63
REMARK   30  A    between atoms: _63  and  _64
REMARK   31  A    between atoms: _66  and  _68
REMARK   32  A    between atoms: _68  and  _69
REMARK   33  A    between atoms: _72  and  _74
REMARK   34  A    between atoms: _74  and  _75
REMARK   35  A    between atoms: _74  and  _77
REMARK   36  A    between atoms: _77  and  _78
REMARK   37  A    between atoms: _78  and  _79
REMARK   38  A    between atoms: _82  and  _84
REMARK   39  A    between atoms: _84  and  _85
REMARK   40  A    between atoms: _84  and  _87
REMARK   41  A    between atoms: _87  and  _88
REMARK   42  A    between atoms: _90  and  _92
REMARK   43  A    between atoms: _92  and  _93
REMARK   44  A    between atoms: _92  and  _95
REMARK   45  A    between atoms: _95  and  _96
REMARK   46  A    between atoms: _101  and  _103
REMARK   47  A    between atoms: _103  and  _104
REMARK   48  A    between atoms: _103  and  _106
REMARK   49  A    between atoms: _106  and  _107
REMARK   50  A    between atoms: _107  and  _108
REMARK   51  A    between atoms: _111  and  _113
REMARK   52  A    between atoms: _113  and  _114
REMARK   53  A    between atoms: _113  and  _116
REMARK   54  A    between atoms: _116  and  _117
REMARK   55  A    between atoms: _119  and  _121
REMARK   56  A    between atoms: _121  and  _122
REMARK   57  A    between atoms: _121  and  _124
REMARK   58  A    between atoms: _124  and  _125
REMARK   59  A    between atoms: _135  and  _137
REMARK   60  A    between atoms: _137  and  _138
REMARK   61  A    between atoms: _137  and  _140
REMARK   62  A    between atoms: _140  and  _141
REMARK   63  A    between atoms: _146  and  _148
REMARK   64  A    between atoms: _148  and  _149
REMARK   65  A    between atoms: _151  and  _153
REMARK   66  A    between atoms: _153  and  _154
REMARK   67  A    between atoms: _153  and  _156
REMARK   68  A    between atoms: _156  and  _157
REMARK   69  A    between atoms: _157  and  _158
REMARK   70  A    between atoms: _160  and  _162
REMARK   71  A    between atoms: _162  and  _163
REMARK   72  A    between atoms: _162  and  _165
REMARK   73  A    between atoms: _165  and  _166
REMARK   74  A    between atoms: _169  and  _171
REMARK   75  A    between atoms: _171  and  _172
REMARK   76  A    between atoms: _175  and  _177
REMARK   77  A    between atoms: _177  and  _178
REMARK   78  A    between atoms: _177  and  _180
REMARK   79  A    between atoms: _180  and  _181
REMARK   80  A    between atoms: _184  and  _186
REMARK   81  A    between atoms: _186  and  _187
REMARK   82  A    between atoms: _186  and  _189
REMARK   83  A    between atoms: _189  and  _190
REMARK   84  A    between atoms: _192  and  _194
REMARK   85  A    between atoms: _194  and  _195
REMARK   86  A    between atoms: _198  and  _200
REMARK   87  A    between atoms: _200  and  _201
REMARK   88  A    between atoms: _200  and  _203
REMARK   89  A    between atoms: _203  and  _205
REMARK   90  A    between atoms: _207  and  _209
REMARK   91  A    between atoms: _209  and  _210
REMARK   92  A    between atoms: _213  and  _215
REMARK   93  A    between atoms: _215  and  _216
REMARK   94  A    between atoms: _215  and  _218
REMARK   95  A    between atoms: _218  and  _219
REMARK   96  A    between atoms: _219  and  _220
REMARK   97  A    between atoms: _224  and  _225
REMARK   98  A    between atoms: _230  and  _232
REMARK   99  A    between atoms: _232  and  _233
REMARK  100  A    between atoms: _232  and  _235
REMARK  101  A    between atoms: _235  and  _236
REMARK  102  A    between atoms: _239  and  _241
REMARK  103  A    between atoms: _241  and  _242
REMARK  104  A    between atoms: _241  and  _244
REMARK  105  A    between atoms: _244  and  _245
REMARK  106  A    between atoms: _248  and  _250
REMARK  107  A    between atoms: _250  and  _251
REMARK  108  A    between atoms: _250  and  _253
REMARK  109  A    between atoms: _253  and  _254
REMARK  110  A    between atoms: _256  and  _258
REMARK  111  A    between atoms: _258  and  _259
REMARK  112  A    between atoms: _258  and  _261
REMARK  113  A    between atoms: _261  and  _262
REMARK  114  A    between atoms: _264  and  _266
REMARK  115  A    between atoms: _266  and  _267
REMARK  116  A    between atoms: _269  and  _271
REMARK  117  A    between atoms: _271  and  _272
REMARK  118  A    between atoms: _274  and  _276
REMARK  119  A    between atoms: _276  and  _277
REMARK  120  A    between atoms: _276  and  _279
REMARK  121  A    between atoms: _279  and  _280
REMARK  122  A    between atoms: _283  and  _285
REMARK  123  A    between atoms: _285  and  _286
REMARK  124  A    between atoms: _285  and  _288
REMARK  125  A    between atoms: _288  and  _289
REMARK  126  A    between atoms: _289  and  _290
REMARK  127  A    between atoms: _293  and  _295
REMARK  128  A    between atoms: _295  and  _296
REMARK  129  A    between atoms: _299  and  _301
REMARK  130  A    between atoms: _301  and  _302
REMARK  131  A    between atoms: _301  and  _304
REMARK  132  A    between atoms: _304  and  _305
REMARK  133  A    between atoms: _305  and  _306
REMARK  134  A    between atoms: _311  and  _313
REMARK  135  A    between atoms: _313  and  _314
REMARK  136  A    between atoms: _313  and  _316
REMARK  137  A    between atoms: _316  and  _317
REMARK  138  A    between atoms: _320  and  _322
REMARK  139  A    between atoms: _322  and  _323
REMARK  140  A    between atoms: _322  and  _325
REMARK  141  A    between atoms: _325  and  _326
REMARK  142  A    between atoms: _329  and  _331
REMARK  143  A    between atoms: _331  and  _332
REMARK  144  A    between atoms: _331  and  _334
REMARK  145  A    between atoms: _334  and  _335
REMARK  146  A    between atoms: _338  and  _340
REMARK  147  A    between atoms: _340  and  _341
REMARK  148  A    between atoms: _340  and  _343
REMARK  149  A    between atoms: _343  and  _344
REMARK  150  A    between atoms: _346  and  _348
REMARK  151  A    between atoms: _348  and  _349
REMARK  152  A    between atoms: _348  and  _351
REMARK  153  A    between atoms: _351  and  _352
REMARK  154  A    between atoms: _352  and  _353
REMARK  155  A    between atoms: _353  and  _354
REMARK  156  A    between atoms: _354  and  _355
REMARK  157  A    between atoms: _360  and  _361
REMARK  158  A    between atoms: _366  and  _368
REMARK  159  A    between atoms: _368  and  _369
REMARK  160  A    between atoms: _368  and  _371
REMARK  161  A    between atoms: _371  and  _372
REMARK  162  A    between atoms: _375  and  _377
REMARK  163  A    between atoms: _377  and  _378
REMARK  164  A    between atoms: _381  and  _383
REMARK  165  A    between atoms: _383  and  _384
REMARK  166  A    between atoms: _383  and  _386
REMARK  167  A    between atoms: _386  and  _387
REMARK  168  A    between atoms: _392  and  _394
REMARK  169  A    between atoms: _394  and  _395
REMARK  170  A    between atoms: _394  and  _397
REMARK  171  A    between atoms: _400  and  _402
REMARK  172  A    between atoms: _402  and  _403
REMARK  173  A    between atoms: _402  and  _405
REMARK  174  A    between atoms: _405  and  _406
REMARK  175  A    between atoms: _406  and  _407
REMARK  176  A    between atoms: _407  and  _408
REMARK  177  A    between atoms: _417  and  _419
REMARK  178  A    between atoms: _419  and  _420
REMARK  179  A    between atoms: _419  and  _422
REMARK  180  A    between atoms: _422  and  _423
REMARK  181  A    between atoms: _428  and  _430
REMARK  182  A    between atoms: _430  and  _431
REMARK  183  A    between atoms: _430  and  _433
REMARK  184  A    between atoms: _433  and  _434
REMARK  185  A    between atoms: _440  and  _442
REMARK  186  A    between atoms: _442  and  _443
REMARK  187  A    between atoms: _442  and  _445
REMARK  188  A    between atoms: _445  and  _446
REMARK  189  A    between atoms: _448  and  _450
REMARK  190  A    between atoms: _450  and  _451
REMARK  191  A    between atoms: _450  and  _453
REMARK  192  A    between atoms: _453  and  _454
REMARK  193  A    between atoms: _454  and  _455
REMARK  194  A    between atoms: _458  and  _460
REMARK  195  A    between atoms: _460  and  _461
REMARK  196  A    between atoms: _460  and  _463
REMARK  197  A    between atoms: _463  and  _464
REMARK  198  A    between atoms: _466  and  _468
REMARK  199  A    between atoms: _468  and  _469
REMARK  200  A    between atoms: _468  and  _471
REMARK  201  A    between atoms: _471  and  _472
REMARK  202  A    between atoms: _472  and  _473
REMARK  203  A    between atoms: _476  and  _478
REMARK  204  A    between atoms: _478  and  _479
REMARK  205  A    between atoms: _478  and  _481
REMARK  206  A    between atoms: _481  and  _482
REMARK  207  A    between atoms: _485  and  _487
REMARK  208  A    between atoms: _487  and  _488
REMARK  209  A    between atoms: _487  and  _490
REMARK  210  A    between atoms: _490  and  _491
REMARK  211  A    between atoms: _497  and  _499
REMARK  212  A    between atoms: _499  and  _500
REMARK  213  A    between atoms: _499  and  _502
REMARK  214  A    between atoms: _502  and  _503
REMARK  215  A    between atoms: _508  and  _509
REMARK  216  A    between atoms: _511  and  _513
REMARK  217  A    between atoms: _513  and  _514
REMARK  218  A    between atoms: _513  and  _516
REMARK  219  A    between atoms: _516  and  _517
REMARK  220  A    between atoms: _520  and  _522
REMARK  221  A    between atoms: _522  and  _523
REMARK  222  A    between atoms: _522  and  _525
REMARK  223  A    between atoms: _525  and  _526
REMARK  224  A    between atoms: _529  and  _531
REMARK  225  A    between atoms: _531  and  _532
REMARK  226  A    between atoms: _531  and  _534
REMARK  227  A    between atoms: _534  and  _535
REMARK  228  A    between atoms: _540  and  _542
REMARK  229  A    between atoms: _542  and  _543
REMARK  230  A    between atoms: _542  and  _545
REMARK                            x       y       z     vdW  Elec       q    Type
REMARK                         _______ _______ _______ _____ _____    ______ ____
ROOT
ATOM      1  CA  GLU A   5      25.268  48.668  11.137  0.00  0.00    +0.149 C 
ENDROOT
BRANCH   1   3
ATOM      2  C   ALA A   4      24.171  50.468  12.375  0.00  0.00    +0.241 C 
ATOM      3  N   GLU A   5      24.370  49.173  12.164  0.00  0.00    -0.297 N 
ATOM      4  H   GLU A   5      23.861  48.489  12.759  0.00  0.00    +0.150 HD
ATOM      5  O   ALA A   4      24.685  51.334  11.705  0.00  0.00    -0.273 OA
BRANCH   2   6
ATOM      6  CA  ALA A   4      23.255  50.824  13.510  0.00  0.00    +0.149 C 
ATOM      7  CB  ALA A   4      24.028  50.822  14.837  0.00  0.00    +0.031 C 
BRANCH   6   9
ATOM      8  C   GLY A   3      21.286  49.830  12.554  0.00  0.00    +0.243 C 
ATOM      9  N   ALA A   4      22.149  49.901  13.558  0.00  0.00    -0.297 N 
ATOM     10  H   ALA A   4      22.027  49.285  14.387  0.00  0.00    +0.150 HD
ATOM     11  O   GLY A   3      21.412  50.492  11.559  0.00  0.00    -0.273 OA
BRANCH   8  12
ATOM     12  CA  GLY A   3      20.125  48.837  12.677  0.00  0.00    +0.176 C 
BRANCH  12  14
ATOM     13  C   THR A   2      21.430  46.796  12.300  0.00  0.00    +0.243 C 
ATOM     14  N   GLY A   3      20.578  47.512  13.059  0.00  0.00    -0.295 N 
ATOM     15  H   GLY A   3      20.233  47.101  13.950  0.00  0.00    +0.150 HD
ATOM     16  O   THR A   2      21.958  47.225  11.221  0.00  0.00    -0.273 OA
BRANCH  13  17
ATOM     17  CA  THR A   2      21.821  45.454  12.918  0.00  0.00    +0.176 C 
BRANCH  17  20
ATOM     18  C   SER A   1      21.971  43.337  11.822  0.00  0.00    +0.241 C 
ATOM     19  O   SER A   1      20.853  43.054  12.280  0.00  0.00    -0.274 OA
ATOM     20  N   THR A   2      22.537  44.503  12.063  0.00  0.00    -0.295 N 
ATOM     21  H   THR A   2      23.465  44.741  11.658  0.00  0.00    +0.150 HD
BRANCH  18  22
ATOM     22  CA  SER A   1      22.715  42.373  10.936  0.00  0.00    +0.174 C 
BRANCH  22  23
ATOM     23  N   SER A   1      23.277  42.866   9.672  0.00  0.00    -0.236 NA
ATOM     24  H   SER A   1      24.044  43.568   9.694  0.00  0.00    +0.142 HD
ENDBRANCH  22  23
BRANCH  22  25
ATOM     25  CB  SER A   1      23.755  41.575  11.738  0.00  0.00    +0.163 C 
BRANCH  25  26
ATOM     26  OG  SER A   1      24.624  40.839  10.882  0.00  0.00    -0.380 OA
ATOM     27  H   SER A   1      24.092  40.204  10.340  0.00  0.00    +0.211 HD
ENDBRANCH  25  26
ENDBRANCH  22  25
ENDBRANCH  18  22
ENDBRANCH  17  20
BRANCH  17  28
ATOM     28  CB  THR A   2      22.631  45.772  14.214  0.00  0.00    +0.137 C 
ATOM     29  CG2 THR A   2      23.173  44.513  14.802  0.00  0.00    +0.034 C 
BRANCH  28  30
ATOM     30  OG1 THR A   2      23.720  46.640  13.881  0.00  0.00    -0.382 OA
ATOM     31  HG1 THR A   2      24.238  46.846  14.699  0.00  0.00    +0.210 HD
ENDBRANCH  28  30
ENDBRANCH  17  28
ENDBRANCH  13  17
ENDBRANCH  12  14
ENDBRANCH   8  12
ENDBRANCH   6   9
ENDBRANCH   2   6
ENDBRANCH   1   3
BRANCH   1  32
ATOM     32  C   GLU A   5      24.738  49.129   9.777  0.00  0.00    +0.241 C 
ATOM     33  N   SER A   6      23.433  48.974   9.595  0.00  0.00    -0.295 N 
ATOM     34  H   SER A   6      22.862  48.529  10.341  0.00  0.00    +0.150 HD
ATOM     35  O   GLU A   5      25.472  49.664   8.939  0.00  0.00    -0.273 OA
BRANCH  33  36
ATOM     36  CA  SER A   6      22.787  49.418   8.365  0.00  0.00    +0.178 C 
BRANCH  36  37
ATOM     37  C   SER A   6      22.967  50.949   8.187  0.00  0.00    +0.243 C 
ATOM     38  N   ASN A   7      22.871  51.713   9.247  0.00  0.00    -0.297 N 
ATOM     39  H   ASN A   7      22.637  51.315  10.179  0.00  0.00    +0.150 HD
ATOM     40  O   SER A   6      23.328  51.439   7.120  0.00  0.00    -0.273 OA
BRANCH  38  41
ATOM     41  CA  ASN A   7      23.106  53.149   9.071  0.00  0.00    +0.158 C 
BRANCH  41  42
ATOM     42  C   ASN A   7      24.558  53.499   8.770  0.00  0.00    +0.241 C 
ATOM     43  N   GLU A   8      25.482  52.766   9.392  0.00  0.00    -0.298 N 
ATOM     44  H   GLU A   8      25.184  52.030  10.063  0.00  0.00    +0.150 HD
ATOM     45  O   ASN A   7      24.842  54.442   7.994  0.00  0.00    -0.273 OA
BRANCH  43  46
ATOM     46  CA  GLU A   8      26.913  52.981   9.145  0.00  0.00    +0.137 C 
BRANCH  46  47
ATOM     47  C   GLU A   8      27.232  52.684   7.676  0.00  0.00    +0.227 C 
ATOM     48  O   GLU A   8      27.949  53.447   6.994  0.00  0.00    -0.286 OA
ENDBRANCH  46  47
BRANCH  46  49
ATOM     49  CB  GLU A   8      27.766  52.077  10.021  0.00  0.00    +0.039 C 
BRANCH  49  50
ATOM     50  CG  GLU A   8      27.570  52.345  11.535  0.00  0.00    +0.116 C 
BRANCH  50  51
ATOM     51  CD  GLU A   8      28.622  53.261  12.158  0.00  0.00    +0.365 C 
ATOM     52  OE2 GLU A   8      28.483  53.647  13.360  0.00  0.00    -0.246 OA
ATOM     53  OE1 GLU A   8      29.541  53.679  11.409  0.00  0.00    -0.246 OA
ENDBRANCH  50  51
ENDBRANCH  49  50
ENDBRANCH  46  49
ENDBRANCH  43  46
ENDBRANCH  41  42
BRANCH  41  54
ATOM     54  CB  ASN A   7      22.510  53.972  10.229  0.00  0.00    +0.114 C 
BRANCH  54  55
ATOM     55  CG  ASN A   7      21.001  53.916  10.276  0.00  0.00    +0.222 C 
ATOM     56  ND2 ASN A   7      20.403  53.677  11.508  0.00  0.00    -0.329 N 
ATOM     57 HD21 ASN A   7      20.992  53.521  12.351  0.00  0.00    +0.145 HD
ATOM     58 HD22 ASN A   7      19.366  53.655  11.587  0.00  0.00    +0.145 HD
ATOM     59  OD1 ASN A   7      20.352  54.108   9.244  0.00  0.00    -0.275 OA
ENDBRANCH  54  55
ENDBRANCH  41  54
ENDBRANCH  38  41
ENDBRANCH  36  37
BRANCH  36  60
ATOM     60  CB  SER A   6      21.327  48.961   8.285  0.00  0.00    +0.166 C 
BRANCH  60  61
ATOM     61  OG  SER A   6      20.510  49.822   9.003  0.00  0.00    -0.380 OA
ATOM     62  H   SER A   6      20.794  49.830   9.951  0.00  0.00    +0.211 HD
ENDBRANCH  60  61
ENDBRANCH  36  60
ENDBRANCH  33  36
ENDBRANCH   1  32
BRANCH   1  63
ATOM     63  CB  GLU A   5      25.254  47.152  11.227  0.00  0.00    +0.041 C 
BRANCH  63  64
ATOM     64  CG  GLU A   5      26.329  46.434  10.515  0.00  0.00    +0.116 C 
BRANCH  64  65
ATOM     65  CD  GLU A   5      26.216  44.907  10.627  0.00  0.00    +0.365 C 
ATOM     66  OE2 GLU A   5      25.067  44.358  10.767  0.00  0.00    -0.246 OA
ATOM     67  OE1 GLU A   5      27.258  44.254  10.482  0.00  0.00    -0.246 OA
ENDBRANCH  64  65
ENDBRANCH  63  64
ENDBRANCH   1  63
TORSDOF 30
REMARK  Name = ../refined-set-2016/1m0o/1m0o_pocket.pdb
REMARK  230 active torsions:
REMARK  status: ('A' for Active; 'I' for Inactive)
REMARK    1  A    between atoms: _1  and  _3
REMARK    2  A    between atoms: _3  and  _4
REMARK    3  A    between atoms: _3  and  _6
REMARK    4  A    between atoms: _6  and  _7
REMARK    5  A    between atoms: _10  and  _12
REMARK    6  A    between atoms: _12  and  _13
REMARK    7  A    between atoms: _15  and  _17
REMARK    8  A    between atoms: _17  and  _18
REMARK    9  A    between atoms: _17  and  _20
REMARK   10  A    between atoms: _20  and  _21
REMARK   11  A    between atoms: _21  and  _22
REMARK   12  A    between atoms: _27  and  _29
REMARK   13  A    between atoms: _29  and  _30
REMARK   14  A    between atoms: _29  and  _32
REMARK   15  A    between atoms: _32  and  _33
REMARK   16  A    between atoms: _33  and  _34
REMARK   17  A    between atoms: _36  and  _38
REMARK   18  A    between atoms: _38  and  _39
REMARK   19  A    between atoms: _38  and  _41
REMARK   20  A    between atoms: _41  and  _42
REMARK   21  A    between atoms: _44  and  _46
REMARK   22  A    between atoms: _46  and  _47
REMARK   23  A    between atoms: _46  and  _49
REMARK   24  A    between atoms: _49  and  _50
REMARK   25  A    between atoms: _52  and  _54
REMARK   26  A    between atoms: _54  and  _55
REMARK   27  A    between atoms: _54  and  _57
REMARK   28  A    between atoms: _57  and  _58
REMARK   29  A    between atoms: _61  and  _63
REMARK   30  A    between atoms: _63  and  _64
REMARK   31  A    between atoms: _66  and  _68
REMARK   32  A    between atoms: _68  and  _69
REMARK   33  A    between atoms: _72  and  _74
REMARK   34  A    between atoms: _74  and  _75
REMARK   35  A    between atoms: _74  and  _77
REMARK   36  A    between atoms: _77  and  _78
REMARK   37  A    between atoms: _78  and  _79
REMARK   38  A    between atoms: _82  and  _84
REMARK   39  A    between atoms: _84  and  _85
REMARK   40  A    between atoms: _84  and  _87
REMARK   41  A    between atoms: _87  and  _88
REMARK   42  A    between atoms: _90  and  _92
REMARK   43  A    between atoms: _92  and  _93
REMARK   44  A    between atoms: _92  and  _95
REMARK   45  A    between atoms: _95  and  _96
REMARK   46  A    between atoms: _101  and  _103
REMARK   47  A    between atoms: _103  and  _104
REMARK   48  A    between atoms: _103  and  _106
REMARK   49  A    between atoms: _106  and  _107
REMARK   50  A    between atoms: _107  and  _108
REMARK   51  A    between atoms: _111  and  _113
REMARK   52  A    between atoms: _113  and  _114
REMARK   53  A    between atoms: _113  and  _116
REMARK   54  A    between atoms: _116  and  _117
REMARK   55  A    between atoms: _119  and  _121
REMARK   56  A    between atoms: _121  and  _122
REMARK   57  A    between atoms: _121  and  _124
REMARK   58  A    between atoms: _124  and  _125
REMARK   59  A    between atoms: _135  and  _137
REMARK   60  A    between atoms: _137  and  _138
REMARK   61  A    between atoms: _137  and  _140
REMARK   62  A    between atoms: _140  and  _141
REMARK   63  A    between atoms: _146  and  _148
REMARK   64  A    between atoms: _148  and  _149
REMARK   65  A    between atoms: _151  and  _153
REMARK   66  A    between atoms: _153  and  _154
REMARK   67  A    between atoms: _153  and  _156
REMARK   68  A    between atoms: _156  and  _157
REMARK   69  A    between atoms: _157  and  _158
REMARK   70  A    between atoms: _160  and  _162
REMARK   71  A    between atoms: _162  and  _163
REMARK   72  A    between atoms: _162  and  _165
REMARK   73  A    between atoms: _165  and  _166
REMARK   74  A    between atoms: _169  and  _171
REMARK   75  A    between atoms: _171  and  _172
REMARK   76  A    between atoms: _175  and  _177
REMARK   77  A    between atoms: _177  and  _178
REMARK   78  A    between atoms: _177  and  _180
REMARK   79  A    between atoms: _180  and  _181
REMARK   80  A    between atoms: _184  and  _186
REMARK   81  A    between atoms: _186  and  _187
REMARK   82  A    between atoms: _186  and  _189
REMARK   83  A    between atoms: _189  and  _190
REMARK   84  A    between atoms: _192  and  _194
REMARK   85  A    between atoms: _194  and  _195
REMARK   86  A    between atoms: _198  and  _200
REMARK   87  A    between atoms: _200  and  _201
REMARK   88  A    between atoms: _200  and  _203
REMARK   89  A    between atoms: _203  and  _205
REMARK   90  A    between atoms: _207  and  _209
REMARK   91  A    between atoms: _209  and  _210
REMARK   92  A    between atoms: _213  and  _215
REMARK   93  A    between atoms: _215  and  _216
REMARK   94  A    between atoms: _215  and  _218
REMARK   95  A    between atoms: _218  and  _219
REMARK   96  A    between atoms: _219  and  _220
REMARK   97  A    between atoms: _224  and  _225
REMARK   98  A    between atoms: _230  and  _232
REMARK   99  A    between atoms: _232  and  _233
REMARK  100  A    between atoms: _232  and  _235
REMARK  101  A    between atoms: _235  and  _236
REMARK  102  A    between atoms: _239  and  _241
REMARK  103  A    between atoms: _241  and  _242
REMARK  104  A    between atoms: _241  and  _244
REMARK  105  A    between atoms: _244  and  _245
REMARK  106  A    between atoms: _248  and  _250
REMARK  107  A    between atoms: _250  and  _251
REMARK  108  A    between atoms: _250  and  _253
REMARK  109  A    between atoms: _253  and  _254
REMARK  110  A    between atoms: _256  and  _258
REMARK  111  A    between atoms: _258  and  _259
REMARK  112  A    between atoms: _258  and  _261
REMARK  113  A    between atoms: _261  and  _262
REMARK  114  A    between atoms: _264  and  _266
REMARK  115  A    between atoms: _266  and  _267
REMARK  116  A    between atoms: _269  and  _271
REMARK  117  A    between atoms: _271  and  _272
REMARK  118  A    between atoms: _274  and  _276
REMARK  119  A    between atoms: _276  and  _277
REMARK  120  A    between atoms: _276  and  _279
REMARK  121  A    between atoms: _279  and  _280
REMARK  122  A    between atoms: _283  and  _285
REMARK  123  A    between atoms: _285  and  _286
REMARK  124  A    between atoms: _285  and  _288
REMARK  125  A    between atoms: _288  and  _289
REMARK  126  A    between atoms: _289  and  _290
REMARK  127  A    between atoms: _293  and  _295
REMARK  128  A    between atoms: _295  and  _296
REMARK  129  A    between atoms: _299  and  _301
REMARK  130  A    between atoms: _301  and  _302
REMARK  131  A    between atoms: _301  and  _304
REMARK  132  A    between atoms: _304  and  _305
REMARK  133  A    between atoms: _305  and  _306
REMARK  134  A    between atoms: _311  and  _313
REMARK  135  A    between atoms: _313  and  _314
REMARK  136  A    between atoms: _313  and  _316
REMARK  137  A    between atoms: _316  and  _317
REMARK  138  A    between atoms: _320  and  _322
REMARK  139  A    between atoms: _322  and  _323
REMARK  140  A    between atoms: _322  and  _325
REMARK  141  A    between atoms: _325  and  _326
REMARK  142  A    between atoms: _329  and  _331
REMARK  143  A    between atoms: _331  and  _332
REMARK  144  A    between atoms: _331  and  _334
REMARK  145  A    between atoms: _334  and  _335
REMARK  146  A    between atoms: _338  and  _340
REMARK  147  A    between atoms: _340  and  _341
REMARK  148  A    between atoms: _340  and  _343
REMARK  149  A    between atoms: _343  and  _344
REMARK  150  A    between atoms: _346  and  _348
REMARK  151  A    between atoms: _348  and  _349
REMARK  152  A    between atoms: _348  and  _351
REMARK  153  A    between atoms: _351  and  _352
REMARK  154  A    between atoms: _352  and  _353
REMARK  155  A    between atoms: _353  and  _354
REMARK  156  A    between atoms: _354  and  _355
REMARK  157  A    between atoms: _360  and  _361
REMARK  158  A    between atoms: _366  and  _368
REMARK  159  A    between atoms: _368  and  _369
REMARK  160  A    between atoms: _368  and  _371
REMARK  161  A    between atoms: _371  and  _372
REMARK  162  A    between atoms: _375  and  _377
REMARK  163  A    between atoms: _377  and  _378
REMARK  164  A    between atoms: _381  and  _383
REMARK  165  A    between atoms: _383  and  _384
REMARK  166  A    between atoms: _383  and  _386
REMARK  167  A    between atoms: _386  and  _387
REMARK  168  A    between atoms: _392  and  _394
REMARK  169  A    between atoms: _394  and  _395
REMARK  170  A    between atoms: _394  and  _397
REMARK  171  A    between atoms: _400  and  _402
REMARK  172  A    between atoms: _402  and  _403
REMARK  173  A    between atoms: _402  and  _405
REMARK  174  A    between atoms: _405  and  _406
REMARK  175  A    between atoms: _406  and  _407
REMARK  176  A    between atoms: _407  and  _408
REMARK  177  A    between atoms: _417  and  _419
REMARK  178  A    between atoms: _419  and  _420
REMARK  179  A    between atoms: _419  and  _422
REMARK  180  A    between atoms: _422  and  _423
REMARK  181  A    between atoms: _428  and  _430
REMARK  182  A    between atoms: _430  and  _431
REMARK  183  A    between atoms: _430  and  _433
REMARK  184  A    between atoms: _433  and  _434
REMARK  185  A    between atoms: _440  and  _442
REMARK  186  A    between atoms: _442  and  _443
REMARK  187  A    between atoms: _442  and  _445
REMARK  188  A    between atoms: _445  and  _446
REMARK  189  A    between atoms: _448  and  _450
REMARK  190  A    between atoms: _450  and  _451
REMARK  191  A    between atoms: _450  and  _453
REMARK  192  A    between atoms: _453  and  _454
REMARK  193  A    between atoms: _454  and  _455
REMARK  194  A    between atoms: _458  and  _460
REMARK  195  A    between atoms: _460  and  _461
REMARK  196  A    between atoms: _460  and  _463
REMARK  197  A    between atoms: _463  and  _464
REMARK  198  A    between atoms: _466  and  _468
REMARK  199  A    between atoms: _468  and  _469
REMARK  200  A    between atoms: _468  and  _471
REMARK  201  A    between atoms: _471  and  _472
REMARK  202  A    between atoms: _472  and  _473
REMARK  203  A    between atoms: _476  and  _478
REMARK  204  A    between atoms: _478  and  _479
REMARK  205  A    between atoms: _478  and  _481
REMARK  206  A    between atoms: _481  and  _482
REMARK  207  A    between atoms: _485  and  _487
REMARK  208  A    between atoms: _487  and  _488
REMARK  209  A    between atoms: _487  and  _490
REMARK  210  A    between atoms: _490  and  _491
REMARK  211  A    between atoms: _497  and  _499
REMARK  212  A    between atoms: _499  and  _500
REMARK  213  A    between atoms: _499  and  _502
REMARK  214  A    between atoms: _502  and  _503
REMARK  215  A    between atoms: _508  and  _509
REMARK  216  A    between atoms: _511  and  _513
REMARK  217  A    between atoms: _513  and  _514
REMARK  218  A    between atoms: _513  and  _516
REMARK  219  A    between atoms: _516  and  _517
REMARK  220  A    between atoms: _520  and  _522
REMARK  221  A    between atoms: _522  and  _523
REMARK  222  A    between atoms: _522  and  _525
REMARK  223  A    between atoms: _525  and  _526
REMARK  224  A    between atoms: _529  and  _531
REMARK  225  A    between atoms: _531  and  _532
REMARK  226  A    between atoms: _531  and  _534
REMARK  227  A    between atoms: _534  and  _535
REMARK  228  A    between atoms: _540  and  _542
REMARK  229  A    between atoms: _542  and  _543
REMARK  230  A    between atoms: _542  and  _545
REMARK                            x       y       z     vdW  Elec       q    Type
REMARK                         _______ _______ _______ _____ _____    ______ ____
ROOT
ATOM      1  CA  HIS A   3      20.305  56.047  14.605  0.00  0.00    +0.155 C 
ENDROOT
BRANCH   1   3
ATOM      2  C   TRP A   2      18.657  57.106  15.986  0.00  0.00    +0.241 C 
ATOM      3  N   HIS A   3      19.926  56.947  15.671  0.00  0.00    -0.297 N 
ATOM      4  H   HIS A   3      20.658  57.471  16.191  0.00  0.00    +0.150 HD
ATOM      5  O   TRP A   2      17.750  56.539  15.411  0.00  0.00    -0.273 OA
BRANCH   2   6
ATOM      6  CA  TRP A   2      18.359  58.027  17.131  0.00  0.00    +0.153 C 
BRANCH   6   9
ATOM      7  C   SER A   1      17.754  60.388  17.160  0.00  0.00    +0.241 C 
ATOM      8  O   SER A   1      18.399  60.633  18.193  0.00  0.00    -0.274 OA
ATOM      9  N   TRP A   2      17.650  59.186  16.614  0.00  0.00    -0.297 N 
ATOM     10  H   TRP A   2      17.037  59.066  15.782  0.00  0.00    +0.150 HD
BRANCH   7  11
ATOM     11  CA  SER A   1      17.155  61.449  16.340  0.00  0.00    +0.174 C 
BRANCH  11  12
ATOM     12  N   SER A   1      17.049  62.690  17.060  0.00  0.00    -0.236 NA
ATOM     13  H   SER A   1      17.772  63.424  16.917  0.00  0.00    +0.142 HD
ENDBRANCH  11  12
BRANCH  11  14
ATOM     14  CB  SER A   1      18.127  61.660  15.207  0.00  0.00    +0.163 C 
BRANCH  14  15
ATOM     15  OG  SER A   1      19.425  61.913  15.810  0.00  0.00    -0.380 OA
ATOM     16  H   SER A   1      20.096  62.058  15.097  0.00  0.00    +0.211 HD
ENDBRANCH  14  15
ENDBRANCH  11  14
ENDBRANCH   7  11
ENDBRANCH   6   9
BRANCH   6  17
ATOM     17  CB  TRP A   2      17.551  57.228  18.145  0.00  0.00    +0.057 C 
BRANCH  17  18
ATOM     18  CG  TRP A   2      18.315  56.073  18.693  0.00  0.00    -0.002 A 
ATOM     19  CD2 TRP A   2      18.942  56.042  19.937  0.00  0.00    +0.013 A 
ATOM     20  CE3 TRP A   2      19.060  56.979  20.992  0.00  0.00    +0.001 A 
ATOM     21  CZ3 TRP A   2      19.708  56.592  22.155  0.00  0.00    +0.000 A 
ATOM     22  CH2 TRP A   2      20.293  55.282  22.264  0.00  0.00    +0.001 A 
ATOM     23  CZ2 TRP A   2      20.214  54.352  21.225  0.00  0.00    +0.017 A 
ATOM     24  CE2 TRP A   2      19.540  54.751  20.075  0.00  0.00    +0.056 A 
ATOM     25  NE1 TRP A   2      19.374  54.101  18.892  0.00  0.00    -0.352 N 
ATOM     26  HE1 TRP A   2      19.757  53.164  18.653  0.00  0.00    +0.166 HD
ATOM     27  CD1 TRP A   2      18.616  54.891  18.069  0.00  0.00    +0.068 A 
ENDBRANCH  17  18
ENDBRANCH   6  17
ENDBRANCH   2   6
ENDBRANCH   1   3
BRANCH   1  28
ATOM     28  C   HIS A   3      21.205  54.858  15.043  0.00  0.00    +0.241 C 
ATOM     29  N   GLY A   4      21.648  54.807  16.296  0.00  0.00    -0.295 N 
ATOM     30  H   GLY A   4      21.423  55.569  16.967  0.00  0.00    +0.150 HD
ATOM     31  O   HIS A   3      21.396  53.935  14.290  0.00  0.00    -0.273 OA
BRANCH  29  32
ATOM     32  CA  GLY A   4      22.462  53.655  16.720  0.00  0.00    +0.176 C 
BRANCH  32  33
ATOM     33  C   GLY A   4      23.573  54.042  17.669  0.00  0.00    +0.243 C 
ATOM     34  N   MET A   5      24.189  53.042  18.268  0.00  0.00    -0.297 N 
ATOM     35  H   MET A   5      23.910  52.066  18.042  0.00  0.00    +0.150 HD
ATOM     36  O   GLY A   4      23.899  55.233  17.853  0.00  0.00    -0.273 OA
BRANCH  34  37
ATOM     37  CA  MET A   5      25.287  53.279  19.271  0.00  0.00    +0.149 C 
BRANCH  37  38
ATOM     38  C   MET A   5      26.668  53.271  18.691  0.00  0.00    +0.241 C 
ATOM     39  O   MET A   5      27.556  53.580  19.425  0.00  0.00    -0.273 OA
ATOM     40  N   THR A   6      26.862  52.750  17.444  0.00  0.00    -0.296 N 
ATOM     41  H   THR A   6      26.042  52.367  16.931  0.00  0.00    +0.150 HD
BRANCH  40  42
ATOM     42  CA  THR A   6      28.197  52.707  16.787  0.00  0.00    +0.164 C 
BRANCH  42  43
ATOM     43  CB  THR A   6      28.340  51.700  15.653  0.00  0.00    +0.136 C 
ATOM     44  CG2 THR A   6      28.015  50.327  16.147  0.00  0.00    +0.034 C 
BRANCH  43  45
ATOM     45  OG1 THR A   6      27.436  52.033  14.618  0.00  0.00    -0.382 OA
ATOM     46  HG1 THR A   6      27.640  52.942  14.283  0.00  0.00    +0.210 HD
ENDBRANCH  43  45
ENDBRANCH  42  43
BRANCH  42  47
ATOM     47  C   THR A   6      28.557  54.053  16.270  0.00  0.00    +0.229 C 
ATOM     48  O   THR A   6      27.687  54.847  15.858  0.00  0.00    -0.286 OA
ENDBRANCH  42  47
ENDBRANCH  40  42
ENDBRANCH  37  38
BRANCH  37  49
ATOM     49  CB  MET A   5      25.293  52.156  20.391  0.00  0.00    +0.041 C 
BRANCH  49  50
ATOM     50  CG  MET A   5      23.952  52.006  21.236  0.00  0.00    +0.060 C 
BRANCH  50  51
ATOM     51  SD  MET A   5      23.724  53.517  22.252  0.00  0.00    -0.139 S 
ATOM     52  CE  MET A   5      25.315  54.130  22.530  0.00  0.00    +0.069 C 
ENDBRANCH  50  51
ENDBRANCH  49  50
ENDBRANCH  37  49
ENDBRANCH  34  37
ENDBRANCH  32  33
ENDBRANCH  29  32
ENDBRANCH   1  28
BRANCH   1  53
ATOM     53  CB  HIS A   3      20.911  56.853  13.434  0.00  0.00    +0.076 C 
BRANCH  53  54
ATOM     54  CG  HIS A   3      19.984  57.885  12.877  0.00  0.00    +0.082 A 
ATOM     55  CD2 HIS A   3      19.980  59.240  12.978  0.00  0.00    +0.115 A 
ATOM     56  NE2 HIS A   3      18.852  59.687  12.325  0.00  0.00    -0.221 NA
ATOM     57  CE1 HIS A   3      18.160  58.647  11.899  0.00  0.00    +0.199 A 
ATOM     58  ND1 HIS A   3      18.821  57.547  12.231  0.00  0.00    -0.227 NA
ENDBRANCH  53  54
ENDBRANCH   1  53
TORSDOF 23
REMARK  Name = ../refined-set-2016/1m0o/1m0o_pocket.pdb
REMARK  230 active torsions:
REMARK  status: ('A' for Active; 'I' for Inactive)
REMARK    1  A    between atoms: _1  and  _3
REMARK    2  A    between atoms: _3  and  _4
REMARK    3  A    between atoms: _3  and  _6
REMARK    4  A    between atoms: _6  and  _7
REMARK    5  A    between atoms: _10  and  _12
REMARK    6  A    between atoms: _12  and  _13
REMARK    7  A    between atoms: _15  and  _17
REMARK    8  A    between atoms: _17  and  _18
REMARK    9  A    between atoms: _17  and  _20
REMARK   10  A    between atoms: _20  and  _21
REMARK   11  A    between atoms: _21  and  _22
REMARK   12  A    between atoms: _27  and  _29
REMARK   13  A    between atoms: _29  and  _30
REMARK   14  A    between atoms: _29  and  _32
REMARK   15  A    between atoms: _32  and  _33
REMARK   16  A    between atoms: _33  and  _34
REMARK   17  A    between atoms: _36  and  _38
REMARK   18  A    between atoms: _38  and  _39
REMARK   19  A    between atoms: _38  and  _41
REMARK   20  A    between atoms: _41  and  _42
REMARK   21  A    between atoms: _44  and  _46
REMARK   22  A    between atoms: _46  and  _47
REMARK   23  A    between atoms: _46  and  _49
REMARK   24  A    between atoms: _49  and  _50
REMARK   25  A    between atoms: _52  and  _54
REMARK   26  A    between atoms: _54  and  _55
REMARK   27  A    between atoms: _54  and  _57
REMARK   28  A    between atoms: _57  and  _58
REMARK   29  A    between atoms: _61  and  _63
REMARK   30  A    between atoms: _63  and  _64
REMARK   31  A    between atoms: _66  and  _68
REMARK   32  A    between atoms: _68  and  _69
REMARK   33  A    between atoms: _72  and  _74
REMARK   34  A    between atoms: _74  and  _75
REMARK   35  A    between atoms: _74  and  _77
REMARK   36  A    between atoms: _77  and  _78
REMARK   37  A    between atoms: _78  and  _79
REMARK   38  A    between atoms: _82  and  _84
REMARK   39  A    between atoms: _84  and  _85
REMARK   40  A    between atoms: _84  and  _87
REMARK   41  A    between atoms: _87  and  _88
REMARK   42  A    between atoms: _90  and  _92
REMARK   43  A    between atoms: _92  and  _93
REMARK   44  A    between atoms: _92  and  _95
REMARK   45  A    between atoms: _95  and  _96
REMARK   46  A    between atoms: _101  and  _103
REMARK   47  A    between atoms: _103  and  _104
REMARK   48  A    between atoms: _103  and  _106
REMARK   49  A    between atoms: _106  and  _107
REMARK   50  A    between atoms: _107  and  _108
REMARK   51  A    between atoms: _111  and  _113
REMARK   52  A    between atoms: _113  and  _114
REMARK   53  A    between atoms: _113  and  _116
REMARK   54  A    between atoms: _116  and  _117
REMARK   55  A    between atoms: _119  and  _121
REMARK   56  A    between atoms: _121  and  _122
REMARK   57  A    between atoms: _121  and  _124
REMARK   58  A    between atoms: _124  and  _125
REMARK   59  A    between atoms: _135  and  _137
REMARK   60  A    between atoms: _137  and  _138
REMARK   61  A    between atoms: _137  and  _140
REMARK   62  A    between atoms: _140  and  _141
REMARK   63  A    between atoms: _146  and  _148
REMARK   64  A    between atoms: _148  and  _149
REMARK   65  A    between atoms: _151  and  _153
REMARK   66  A    between atoms: _153  and  _154
REMARK   67  A    between atoms: _153  and  _156
REMARK   68  A    between atoms: _156  and  _157
REMARK   69  A    between atoms: _157  and  _158
REMARK   70  A    between atoms: _160  and  _162
REMARK   71  A    between atoms: _162  and  _163
REMARK   72  A    between atoms: _162  and  _165
REMARK   73  A    between atoms: _165  and  _166
REMARK   74  A    between atoms: _169  and  _171
REMARK   75  A    between atoms: _171  and  _172
REMARK   76  A    between atoms: _175  and  _177
REMARK   77  A    between atoms: _177  and  _178
REMARK   78  A    between atoms: _177  and  _180
REMARK   79  A    between atoms: _180  and  _181
REMARK   80  A    between atoms: _184  and  _186
REMARK   81  A    between atoms: _186  and  _187
REMARK   82  A    between atoms: _186  and  _189
REMARK   83  A    between atoms: _189  and  _190
REMARK   84  A    between atoms: _192  and  _194
REMARK   85  A    between atoms: _194  and  _195
REMARK   86  A    between atoms: _198  and  _200
REMARK   87  A    between atoms: _200  and  _201
REMARK   88  A    between atoms: _200  and  _203
REMARK   89  A    between atoms: _203  and  _205
REMARK   90  A    between atoms: _207  and  _209
REMARK   91  A    between atoms: _209  and  _210
REMARK   92  A    between atoms: _213  and  _215
REMARK   93  A    between atoms: _215  and  _216
REMARK   94  A    between atoms: _215  and  _218
REMARK   95  A    between atoms: _218  and  _219
REMARK   96  A    between atoms: _219  and  _220
REMARK   97  A    between atoms: _224  and  _225
REMARK   98  A    between atoms: _230  and  _232
REMARK   99  A    between atoms: _232  and  _233
REMARK  100  A    between atoms: _232  and  _235
REMARK  101  A    between atoms: _235  and  _236
REMARK  102  A    between atoms: _239  and  _241
REMARK  103  A    between atoms: _241  and  _242
REMARK  104  A    between atoms: _241  and  _244
REMARK  105  A    between atoms: _244  and  _245
REMARK  106  A    between atoms: _248  and  _250
REMARK  107  A    between atoms: _250  and  _251
REMARK  108  A    between atoms: _250  and  _253
REMARK  109  A    between atoms: _253  and  _254
REMARK  110  A    between atoms: _256  and  _258
REMARK  111  A    between atoms: _258  and  _259
REMARK  112  A    between atoms: _258  and  _261
REMARK  113  A    between atoms: _261  and  _262
REMARK  114  A    between atoms: _264  and  _266
REMARK  115  A    between atoms: _266  and  _267
REMARK  116  A    between atoms: _269  and  _271
REMARK  117  A    between atoms: _271  and  _272
REMARK  118  A    between atoms: _274  and  _276
REMARK  119  A    between atoms: _276  and  _277
REMARK  120  A    between atoms: _276  and  _279
REMARK  121  A    between atoms: _279  and  _280
REMARK  122  A    between atoms: _283  and  _285
REMARK  123  A    between atoms: _285  and  _286
REMARK  124  A    between atoms: _285  and  _288
REMARK  125  A    between atoms: _288  and  _289
REMARK  126  A    between atoms: _289  and  _290
REMARK  127  A    between atoms: _293  and  _295
REMARK  128  A    between atoms: _295  and  _296
REMARK  129  A    between atoms: _299  and  _301
REMARK  130  A    between atoms: _301  and  _302
REMARK  131  A    between atoms: _301  and  _304
REMARK  132  A    between atoms: _304  and  _305
REMARK  133  A    between atoms: _305  and  _306
REMARK  134  A    between atoms: _311  and  _313
REMARK  135  A    between atoms: _313  and  _314
REMARK  136  A    between atoms: _313  and  _316
REMARK  137  A    between atoms: _316  and  _317
REMARK  138  A    between atoms: _320  and  _322
REMARK  139  A    between atoms: _322  and  _323
REMARK  140  A    between atoms: _322  and  _325
REMARK  141  A    between atoms: _325  and  _326
REMARK  142  A    between atoms: _329  and  _331
REMARK  143  A    between atoms: _331  and  _332
REMARK  144  A    between atoms: _331  and  _334
REMARK  145  A    between atoms: _334  and  _335
REMARK  146  A    between atoms: _338  and  _340
REMARK  147  A    between atoms: _340  and  _341
REMARK  148  A    between atoms: _340  and  _343
REMARK  149  A    between atoms: _343  and  _344
REMARK  150  A    between atoms: _346  and  _348
REMARK  151  A    between atoms: _348  and  _349
REMARK  152  A    between atoms: _348  and  _351
REMARK  153  A    between atoms: _351  and  _352
REMARK  154  A    between atoms: _352  and  _353
REMARK  155  A    between atoms: _353  and  _354
REMARK  156  A    between atoms: _354  and  _355
REMARK  157  A    between atoms: _360  and  _361
REMARK  158  A    between atoms: _366  and  _368
REMARK  159  A    between atoms: _368  and  _369
REMARK  160  A    between atoms: _368  and  _371
REMARK  161  A    between atoms: _371  and  _372
REMARK  162  A    between atoms: _375  and  _377
REMARK  163  A    between atoms: _377  and  _378
REMARK  164  A    between atoms: _381  and  _383
REMARK  165  A    between atoms: _383  and  _384
REMARK  166  A    between atoms: _383  and  _386
REMARK  167  A    between atoms: _386  and  _387
REMARK  168  A    between atoms: _392  and  _394
REMARK  169  A    between atoms: _394  and  _395
REMARK  170  A    between atoms: _394  and  _397
REMARK  171  A    between atoms: _400  and  _402
REMARK  172  A    between atoms: _402  and  _403
REMARK  173  A    between atoms: _402  and  _405
REMARK  174  A    between atoms: _405  and  _406
REMARK  175  A    between atoms: _406  and  _407
REMARK  176  A    between atoms: _407  and  _408
REMARK  177  A    between atoms: _417  and  _419
REMARK  178  A    between atoms: _419  and  _420
REMARK  179  A    between atoms: _419  and  _422
REMARK  180  A    between atoms: _422  and  _423
REMARK  181  A    between atoms: _428  and  _430
REMARK  182  A    between atoms: _430  and  _431
REMARK  183  A    between atoms: _430  and  _433
REMARK  184  A    between atoms: _433  and  _434
REMARK  185  A    between atoms: _440  and  _442
REMARK  186  A    between atoms: _442  and  _443
REMARK  187  A    between atoms: _442  and  _445
REMARK  188  A    between atoms: _445  and  _446
REMARK  189  A    between atoms: _448  and  _450
REMARK  190  A    between atoms: _450  and  _451
REMARK  191  A    between atoms: _450  and  _453
REMARK  192  A    between atoms: _453  and  _454
REMARK  193  A    between atoms: _454  and  _455
REMARK  194  A    between atoms: _458  and  _460
REMARK  195  A    between atoms: _460  and  _461
REMARK  196  A    between atoms: _460  and  _463
REMARK  197  A    between atoms: _463  and  _464
REMARK  198  A    between atoms: _466  and  _468
REMARK  199  A    between atoms: _468  and  _469
REMARK  200  A    between atoms: _468  and  _471
REMARK  201  A    between atoms: _471  and  _472
REMARK  202  A    between atoms: _472  and  _473
REMARK  203  A    between atoms: _476  and  _478
REMARK  204  A    between atoms: _478  and  _479
REMARK  205  A    between atoms: _478  and  _481
REMARK  206  A    between atoms: _481  and  _482
REMARK  207  A    between atoms: _485  and  _487
REMARK  208  A    between atoms: _487  and  _488
REMARK  209  A    between atoms: _487  and  _490
REMARK  210  A    between atoms: _490  and  _491
REMARK  211  A    between atoms: _497  and  _499
REMARK  212  A    between atoms: _499  and  _500
REMARK  213  A    between atoms: _499  and  _502
REMARK  214  A    between atoms: _502  and  _503
REMARK  215  A    between atoms: _508  and  _509
REMARK  216  A    between atoms: _511  and  _513
REMARK  217  A    between atoms: _513  and  _514
REMARK  218  A    between atoms: _513  and  _516
REMARK  219  A    between atoms: _516  and  _517
REMARK  220  A    between atoms: _520  and  _522
REMARK  221  A    between atoms: _522  and  _523
REMARK  222  A    between atoms: _522  and  _525
REMARK  223  A    between atoms: _525  and  _526
REMARK  224  A    between atoms: _529  and  _531
REMARK  225  A    between atoms: _531  and  _532
REMARK  226  A    between atoms: _531  and  _534
REMARK  227  A    between atoms: _534  and  _535
REMARK  228  A    between atoms: _540  and  _542
REMARK  229  A    between atoms: _542  and  _543
REMARK  230  A    between atoms: _542  and  _545
REMARK                            x       y       z     vdW  Elec       q    Type
REMARK                         _______ _______ _______ _____ _____    ______ ____
ROOT
ATOM      1  CA  ALA A   1      25.408  56.175  13.781  0.00  0.00    +0.133 C 
ATOM      2  CB  ALA A   1      24.953  54.805  13.996  0.00  0.00    +0.027 C 
ENDROOT
BRANCH   1   3
ATOM      3  N   ALA A   1      26.835  56.157  13.476  0.00  0.00    -0.239 NA
ATOM      4  H   ALA A   1      27.360  55.259  13.461  0.00  0.00    +0.142 HD
ENDBRANCH   1   3
BRANCH   1   5
ATOM      5  C   ALA A   1      25.195  57.055  15.036  0.00  0.00    +0.224 C 
ATOM      6  O   ALA A   1      24.325  57.944  15.089  0.00  0.00    -0.287 OA
ENDBRANCH   1   5
TORSDOF 2
REMARK  Name = ../refined-set-2016/1m0o/1m0o_pocket.pdb
REMARK  230 active torsions:
REMARK  status: ('A' for Active; 'I' for Inactive)
REMARK    1  A    between atoms: _1  and  _3
REMARK    2  A    between atoms: _3  and  _4
REMARK    3  A    between atoms: _3  and  _6
REMARK    4  A    between atoms: _6  and  _7
REMARK    5  A    between atoms: _10  and  _12
REMARK    6  A    between atoms: _12  and  _13
REMARK    7  A    between atoms: _15  and  _17
REMARK    8  A    between atoms: _17  and  _18
REMARK    9  A    between atoms: _17  and  _20
REMARK   10  A    between atoms: _20  and  _21
REMARK   11  A    between atoms: _21  and  _22
REMARK   12  A    between atoms: _27  and  _29
REMARK   13  A    between atoms: _29  and  _30
REMARK   14  A    between atoms: _29  and  _32
REMARK   15  A    between atoms: _32  and  _33
REMARK   16  A    between atoms: _33  and  _34
REMARK   17  A    between atoms: _36  and  _38
REMARK   18  A    between atoms: _38  and  _39
REMARK   19  A    between atoms: _38  and  _41
REMARK   20  A    between atoms: _41  and  _42
REMARK   21  A    between atoms: _44  and  _46
REMARK   22  A    between atoms: _46  and  _47
REMARK   23  A    between atoms: _46  and  _49
REMARK   24  A    between atoms: _49  and  _50
REMARK   25  A    between atoms: _52  and  _54
REMARK   26  A    between atoms: _54  and  _55
REMARK   27  A    between atoms: _54  and  _57
REMARK   28  A    between atoms: _57  and  _58
REMARK   29  A    between atoms: _61  and  _63
REMARK   30  A    between atoms: _63  and  _64
REMARK   31  A    between atoms: _66  and  _68
REMARK   32  A    between atoms: _68  and  _69
REMARK   33  A    between atoms: _72  and  _74
REMARK   34  A    between atoms: _74  and  _75
REMARK   35  A    between atoms: _74  and  _77
REMARK   36  A    between atoms: _77  and  _78
REMARK   37  A    between atoms: _78  and  _79
REMARK   38  A    between atoms: _82  and  _84
REMARK   39  A    between atoms: _84  and  _85
REMARK   40  A    between atoms: _84  and  _87
REMARK   41  A    between atoms: _87  and  _88
REMARK   42  A    between atoms: _90  and  _92
REMARK   43  A    between atoms: _92  and  _93
REMARK   44  A    between atoms: _92  and  _95
REMARK   45  A    between atoms: _95  and  _96
REMARK   46  A    between atoms: _101  and  _103
REMARK   47  A    between atoms: _103  and  _104
REMARK   48  A    between atoms: _103  and  _106
REMARK   49  A    between atoms: _106  and  _107
REMARK   50  A    between atoms: _107  and  _108
REMARK   51  A    between atoms: _111  and  _113
REMARK   52  A    between atoms: _113  and  _114
REMARK   53  A    between atoms: _113  and  _116
REMARK   54  A    between atoms: _116  and  _117
REMARK   55  A    between atoms: _119  and  _121
REMARK   56  A    between atoms: _121  and  _122
REMARK   57  A    between atoms: _121  and  _124
REMARK   58  A    between atoms: _124  and  _125
REMARK   59  A    between atoms: _135  and  _137
REMARK   60  A    between atoms: _137  and  _138
REMARK   61  A    between atoms: _137  and  _140
REMARK   62  A    between atoms: _140  and  _141
REMARK   63  A    between atoms: _146  and  _148
REMARK   64  A    between atoms: _148  and  _149
REMARK   65  A    between atoms: _151  and  _153
REMARK   66  A    between atoms: _153  and  _154
REMARK   67  A    between atoms: _153  and  _156
REMARK   68  A    between atoms: _156  and  _157
REMARK   69  A    between atoms: _157  and  _158
REMARK   70  A    between atoms: _160  and  _162
REMARK   71  A    between atoms: _162  and  _163
REMARK   72  A    between atoms: _162  and  _165
REMARK   73  A    between atoms: _165  and  _166
REMARK   74  A    between atoms: _169  and  _171
REMARK   75  A    between atoms: _171  and  _172
REMARK   76  A    between atoms: _175  and  _177
REMARK   77  A    between atoms: _177  and  _178
REMARK   78  A    between atoms: _177  and  _180
REMARK   79  A    between atoms: _180  and  _181
REMARK   80  A    between atoms: _184  and  _186
REMARK   81  A    between atoms: _186  and  _187
REMARK   82  A    between atoms: _186  and  _189
REMARK   83  A    between atoms: _189  and  _190
REMARK   84  A    between atoms: _192  and  _194
REMARK   85  A    between atoms: _194  and  _195
REMARK   86  A    between atoms: _198  and  _200
REMARK   87  A    between atoms: _200  and  _201
REMARK   88  A    between atoms: _200  and  _203
REMARK   89  A    between atoms: _203  and  _205
REMARK   90  A    between atoms: _207  and  _209
REMARK   91  A    between atoms: _209  and  _210
REMARK   92  A    between atoms: _213  and  _215
REMARK   93  A    between atoms: _215  and  _216
REMARK   94  A    between atoms: _215  and  _218
REMARK   95  A    between atoms: _218  and  _219
REMARK   96  A    between atoms: _219  and  _220
REMARK   97  A    between atoms: _224  and  _225
REMARK   98  A    between atoms: _230  and  _232
REMARK   99  A    between atoms: _232  and  _233
REMARK  100  A    between atoms: _232  and  _235
REMARK  101  A    between atoms: _235  and  _236
REMARK  102  A    between atoms: _239  and  _241
REMARK  103  A    between atoms: _241  and  _242
REMARK  104  A    between atoms: _241  and  _244
REMARK  105  A    between atoms: _244  and  _245
REMARK  106  A    between atoms: _248  and  _250
REMARK  107  A    between atoms: _250  and  _251
REMARK  108  A    between atoms: _250  and  _253
REMARK  109  A    between atoms: _253  and  _254
REMARK  110  A    between atoms: _256  and  _258
REMARK  111  A    between atoms: _258  and  _259
REMARK  112  A    between atoms: _258  and  _261
REMARK  113  A    between atoms: _261  and  _262
REMARK  114  A    between atoms: _264  and  _266
REMARK  115  A    between atoms: _266  and  _267
REMARK  116  A    between atoms: _269  and  _271
REMARK  117  A    between atoms: _271  and  _272
REMARK  118  A    between atoms: _274  and  _276
REMARK  119  A    between atoms: _276  and  _277
REMARK  120  A    between atoms: _276  and  _279
REMARK  121  A    between atoms: _279  and  _280
REMARK  122  A    between atoms: _283  and  _285
REMARK  123  A    between atoms: _285  and  _286
REMARK  124  A    between atoms: _285  and  _288
REMARK  125  A    between atoms: _288  and  _289
REMARK  126  A    between atoms: _289  and  _290
REMARK  127  A    between atoms: _293  and  _295
REMARK  128  A    between atoms: _295  and  _296
REMARK  129  A    between atoms: _299  and  _301
REMARK  130  A    between atoms: _301  and  _302
REMARK  131  A    between atoms: _301  and  _304
REMARK  132  A    between atoms: _304  and  _305
REMARK  133  A    between atoms: _305  and  _306
REMARK  134  A    between atoms: _311  and  _313
REMARK  135  A    between atoms: _313  and  _314
REMARK  136  A    between atoms: _313  and  _316
REMARK  137  A    between atoms: _316  and  _317
REMARK  138  A    between atoms: _320  and  _322
REMARK  139  A    between atoms: _322  and  _323
REMARK  140  A    between atoms: _322  and  _325
REMARK  141  A    between atoms: _325  and  _326
REMARK  142  A    between atoms: _329  and  _331
REMARK  143  A    between atoms: _331  and  _332
REMARK  144  A    between atoms: _331  and  _334
REMARK  145  A    between atoms: _334  and  _335
REMARK  146  A    between atoms: _338  and  _340
REMARK  147  A    between atoms: _340  and  _341
REMARK  148  A    between atoms: _340  and  _343
REMARK  149  A    between atoms: _343  and  _344
REMARK  150  A    between atoms: _346  and  _348
REMARK  151  A    between atoms: _348  and  _349
REMARK  152  A    between atoms: _348  and  _351
REMARK  153  A    between atoms: _351  and  _352
REMARK  154  A    between atoms: _352  and  _353
REMARK  155  A    between atoms: _353  and  _354
REMARK  156  A    between atoms: _354  and  _355
REMARK  157  A    between atoms: _360  and  _361
REMARK  158  A    between atoms: _366  and  _368
REMARK  159  A    between atoms: _368  and  _369
REMARK  160  A    between atoms: _368  and  _371
REMARK  161  A    between atoms: _371  and  _372
REMARK  162  A    between atoms: _375  and  _377
REMARK  163  A    between atoms: _377  and  _378
REMARK  164  A    between atoms: _381  and  _383
REMARK  165  A    between atoms: _383  and  _384
REMARK  166  A    between atoms: _383  and  _386
REMARK  167  A    between atoms: _386  and  _387
REMARK  168  A    between atoms: _392  and  _394
REMARK  169  A    between atoms: _394  and  _395
REMARK  170  A    between atoms: _394  and  _397
REMARK  171  A    between atoms: _400  and  _402
REMARK  172  A    between atoms: _402  and  _403
REMARK  173  A    between atoms: _402  and  _405
REMARK  174  A    between atoms: _405  and  _406
REMARK  175  A    between atoms: _406  and  _407
REMARK  176  A    between atoms: _407  and  _408
REMARK  177  A    between atoms: _417  and  _419
REMARK  178  A    between atoms: _419  and  _420
REMARK  179  A    between atoms: _419  and  _422
REMARK  180  A    between atoms: _422  and  _423
REMARK  181  A    between atoms: _428  and  _430
REMARK  182  A    between atoms: _430  and  _431
REMARK  183  A    between atoms: _430  and  _433
REMARK  184  A    between atoms: _433  and  _434
REMARK  185  A    between atoms: _440  and  _442
REMARK  186  A    between atoms: _442  and  _443
REMARK  187  A    between atoms: _442  and  _445
REMARK  188  A    between atoms: _445  and  _446
REMARK  189  A    between atoms: _448  and  _450
REMARK  190  A    between atoms: _450  and  _451
REMARK  191  A    between atoms: _450  and  _453
REMARK  192  A    between atoms: _453  and  _454
REMARK  193  A    between atoms: _454  and  _455
REMARK  194  A    between atoms: _458  and  _460
REMARK  195  A    between atoms: _460  and  _461
REMARK  196  A    between atoms: _460  and  _463
REMARK  197  A    between atoms: _463  and  _464
REMARK  198  A    between atoms: _466  and  _468
REMARK  199  A    between atoms: _468  and  _469
REMARK  200  A    between atoms: _468  and  _471
REMARK  201  A    between atoms: _471  and  _472
REMARK  202  A    between atoms: _472  and  _473
REMARK  203  A    between atoms: _476  and  _478
REMARK  204  A    between atoms: _478  and  _479
REMARK  205  A    between atoms: _478  and  _481
REMARK  206  A    between atoms: _481  and  _482
REMARK  207  A    between atoms: _485  and  _487
REMARK  208  A    between atoms: _487  and  _488
REMARK  209  A    between atoms: _487  and  _490
REMARK  210  A    between atoms: _490  and  _491
REMARK  211  A    between atoms: _497  and  _499
REMARK  212  A    between atoms: _499  and  _500
REMARK  213  A    between atoms: _499  and  _502
REMARK  214  A    between atoms: _502  and  _503
REMARK  215  A    between atoms: _508  and  _509
REMARK  216  A    between atoms: _511  and  _513
REMARK  217  A    between atoms: _513  and  _514
REMARK  218  A    between atoms: _513  and  _516
REMARK  219  A    between atoms: _516  and  _517
REMARK  220  A    between atoms: _520  and  _522
REMARK  221  A    between atoms: _522  and  _523
REMARK  222  A    between atoms: _522  and  _525
REMARK  223  A    between atoms: _525  and  _526
REMARK  224  A    between atoms: _529  and  _531
REMARK  225  A    between atoms: _531  and  _532
REMARK  226  A    between atoms: _531  and  _534
REMARK  227  A    between atoms: _534  and  _535
REMARK  228  A    between atoms: _540  and  _542
REMARK  229  A    between atoms: _542  and  _543
REMARK  230  A    between atoms: _542  and  _545
REMARK                            x       y       z     vdW  Elec       q    Type
REMARK                         _______ _______ _______ _____ _____    ______ ____
ROOT
ATOM      1  CA  THR A   1      22.113  60.444  17.175  0.00  0.00    +0.160 C 
ENDROOT
BRANCH   1   2
ATOM      2  N   THR A   1      23.205  60.720  16.250  0.00  0.00    -0.237 NA
ATOM      3  H   THR A   1      24.181  60.515  16.545  0.00  0.00    +0.142 HD
ENDBRANCH   1   2
BRANCH   1   4
ATOM      4  C   THR A   1      22.038  61.583  18.143  0.00  0.00    +0.227 C 
ATOM      5  O   THR A   1      22.977  61.864  18.779  0.00  0.00    -0.287 OA
ENDBRANCH   1   4
BRANCH   1   6
ATOM      6  CB  THR A   1      22.394  59.163  17.889  0.00  0.00    +0.134 C 
ATOM      7  CG2 THR A   1      21.439  58.962  19.123  0.00  0.00    +0.034 C 
BRANCH   6   8
ATOM      8  OG1 THR A   1      22.194  58.127  16.949  0.00  0.00    -0.383 OA
ATOM      9  HG1 THR A   1      22.813  58.251  16.187  0.00  0.00    +0.210 HD
ENDBRANCH   6   8
ENDBRANCH   1   6
TORSDOF 4
REMARK  Name = ../refined-set-2016/1m0o/1m0o_pocket.pdb
REMARK  230 active torsions:
REMARK  status: ('A' for Active; 'I' for Inactive)
REMARK    1  A    between atoms: _1  and  _3
REMARK    2  A    between atoms: _3  and  _4
REMARK    3  A    between atoms: _3  and  _6
REMARK    4  A    between atoms: _6  and  _7
REMARK    5  A    between atoms: _10  and  _12
REMARK    6  A    between atoms: _12  and  _13
REMARK    7  A    between atoms: _15  and  _17
REMARK    8  A    between atoms: _17  and  _18
REMARK    9  A    between atoms: _17  and  _20
REMARK   10  A    between atoms: _20  and  _21
REMARK   11  A    between atoms: _21  and  _22
REMARK   12  A    between atoms: _27  and  _29
REMARK   13  A    between atoms: _29  and  _30
REMARK   14  A    between atoms: _29  and  _32
REMARK   15  A    between atoms: _32  and  _33
REMARK   16  A    between atoms: _33  and  _34
REMARK   17  A    between atoms: _36  and  _38
REMARK   18  A    between atoms: _38  and  _39
REMARK   19  A    between atoms: _38  and  _41
REMARK   20  A    between atoms: _41  and  _42
REMARK   21  A    between atoms: _44  and  _46
REMARK   22  A    between atoms: _46  and  _47
REMARK   23  A    between atoms: _46  and  _49
REMARK   24  A    between atoms: _49  and  _50
REMARK   25  A    between atoms: _52  and  _54
REMARK   26  A    between atoms: _54  and  _55
REMARK   27  A    between atoms: _54  and  _57
REMARK   28  A    between atoms: _57  and  _58
REMARK   29  A    between atoms: _61  and  _63
REMARK   30  A    between atoms: _63  and  _64
REMARK   31  A    between atoms: _66  and  _68
REMARK   32  A    between atoms: _68  and  _69
REMARK   33  A    between atoms: _72  and  _74
REMARK   34  A    between atoms: _74  and  _75
REMARK   35  A    between atoms: _74  and  _77
REMARK   36  A    between atoms: _77  and  _78
REMARK   37  A    between atoms: _78  and  _79
REMARK   38  A    between atoms: _82  and  _84
REMARK   39  A    between atoms: _84  and  _85
REMARK   40  A    between atoms: _84  and  _87
REMARK   41  A    between atoms: _87  and  _88
REMARK   42  A    between atoms: _90  and  _92
REMARK   43  A    between atoms: _92  and  _93
REMARK   44  A    between atoms: _92  and  _95
REMARK   45  A    between atoms: _95  and  _96
REMARK   46  A    between atoms: _101  and  _103
REMARK   47  A    between atoms: _103  and  _104
REMARK   48  A    between atoms: _103  and  _106
REMARK   49  A    between atoms: _106  and  _107
REMARK   50  A    between atoms: _107  and  _108
REMARK   51  A    between atoms: _111  and  _113
REMARK   52  A    between atoms: _113  and  _114
REMARK   53  A    between atoms: _113  and  _116
REMARK   54  A    between atoms: _116  and  _117
REMARK   55  A    between atoms: _119  and  _121
REMARK   56  A    between atoms: _121  and  _122
REMARK   57  A    between atoms: _121  and  _124
REMARK   58  A    between atoms: _124  and  _125
REMARK   59  A    between atoms: _135  and  _137
REMARK   60  A    between atoms: _137  and  _138
REMARK   61  A    between atoms: _137  and  _140
REMARK   62  A    between atoms: _140  and  _141
REMARK   63  A    between atoms: _146  and  _148
REMARK   64  A    between atoms: _148  and  _149
REMARK   65  A    between atoms: _151  and  _153
REMARK   66  A    between atoms: _153  and  _154
REMARK   67  A    between atoms: _153  and  _156
REMARK   68  A    between atoms: _156  and  _157
REMARK   69  A    between atoms: _157  and  _158
REMARK   70  A    between atoms: _160  and  _162
REMARK   71  A    between atoms: _162  and  _163
REMARK   72  A    between atoms: _162  and  _165
REMARK   73  A    between atoms: _165  and  _166
REMARK   74  A    between atoms: _169  and  _171
REMARK   75  A    between atoms: _171  and  _172
REMARK   76  A    between atoms: _175  and  _177
REMARK   77  A    between atoms: _177  and  _178
REMARK   78  A    between atoms: _177  and  _180
REMARK   79  A    between atoms: _180  and  _181
REMARK   80  A    between atoms: _184  and  _186
REMARK   81  A    between atoms: _186  and  _187
REMARK   82  A    between atoms: _186  and  _189
REMARK   83  A    between atoms: _189  and  _190
REMARK   84  A    between atoms: _192  and  _194
REMARK   85  A    between atoms: _194  and  _195
REMARK   86  A    between atoms: _198  and  _200
REMARK   87  A    between atoms: _200  and  _201
REMARK   88  A    between atoms: _200  and  _203
REMARK   89  A    between atoms: _203  and  _205
REMARK   90  A    between atoms: _207  and  _209
REMARK   91  A    between atoms: _209  and  _210
REMARK   92  A    between atoms: _213  and  _215
REMARK   93  A    between atoms: _215  and  _216
REMARK   94  A    between atoms: _215  and  _218
REMARK   95  A    between atoms: _218  and  _219
REMARK   96  A    between atoms: _219  and  _220
REMARK   97  A    between atoms: _224  and  _225
REMARK   98  A    between atoms: _230  and  _232
REMARK   99  A    between atoms: _232  and  _233
REMARK  100  A    between atoms: _232  and  _235
REMARK  101  A    between atoms: _235  and  _236
REMARK  102  A    between atoms: _239  and  _241
REMARK  103  A    between atoms: _241  and  _242
REMARK  104  A    between atoms: _241  and  _244
REMARK  105  A    between atoms: _244  and  _245
REMARK  106  A    between atoms: _248  and  _250
REMARK  107  A    between atoms: _250  and  _251
REMARK  108  A    between atoms: _250  and  _253
REMARK  109  A    between atoms: _253  and  _254
REMARK  110  A    between atoms: _256  and  _258
REMARK  111  A    between atoms: _258  and  _259
REMARK  112  A    between atoms: _258  and  _261
REMARK  113  A    between atoms: _261  and  _262
REMARK  114  A    between atoms: _264  and  _266
REMARK  115  A    between atoms: _266  and  _267
REMARK  116  A    between atoms: _269  and  _271
REMARK  117  A    between atoms: _271  and  _272
REMARK  118  A    between atoms: _274  and  _276
REMARK  119  A    between atoms: _276  and  _277
REMARK  120  A    between atoms: _276  and  _279
REMARK  121  A    between atoms: _279  and  _280
REMARK  122  A    between atoms: _283  and  _285
REMARK  123  A    between atoms: _285  and  _286
REMARK  124  A    between atoms: _285  and  _288
REMARK  125  A    between atoms: _288  and  _289
REMARK  126  A    between atoms: _289  and  _290
REMARK  127  A    between atoms: _293  and  _295
REMARK  128  A    between atoms: _295  and  _296
REMARK  129  A    between atoms: _299  and  _301
REMARK  130  A    between atoms: _301  and  _302
REMARK  131  A    between atoms: _301  and  _304
REMARK  132  A    between atoms: _304  and  _305
REMARK  133  A    between atoms: _305  and  _306
REMARK  134  A    between atoms: _311  and  _313
REMARK  135  A    between atoms: _313  and  _314
REMARK  136  A    between atoms: _313  and  _316
REMARK  137  A    between atoms: _316  and  _317
REMARK  138  A    between atoms: _320  and  _322
REMARK  139  A    between atoms: _322  and  _323
REMARK  140  A    between atoms: _322  and  _325
REMARK  141  A    between atoms: _325  and  _326
REMARK  142  A    between atoms: _329  and  _331
REMARK  143  A    between atoms: _331  and  _332
REMARK  144  A    between atoms: _331  and  _334
REMARK  145  A    between atoms: _334  and  _335
REMARK  146  A    between atoms: _338  and  _340
REMARK  147  A    between atoms: _340  and  _341
REMARK  148  A    between atoms: _340  and  _343
REMARK  149  A    between atoms: _343  and  _344
REMARK  150  A    between atoms: _346  and  _348
REMARK  151  A    between atoms: _348  and  _349
REMARK  152  A    between atoms: _348  and  _351
REMARK  153  A    between atoms: _351  and  _352
REMARK  154  A    between atoms: _352  and  _353
REMARK  155  A    between atoms: _353  and  _354
REMARK  156  A    between atoms: _354  and  _355
REMARK  157  A    between atoms: _360  and  _361
REMARK  158  A    between atoms: _366  and  _368
REMARK  159  A    between atoms: _368  and  _369
REMARK  160  A    between atoms: _368  and  _371
REMARK  161  A    between atoms: _371  and  _372
REMARK  162  A    between atoms: _375  and  _377
REMARK  163  A    between atoms: _377  and  _378
REMARK  164  A    between atoms: _381  and  _383
REMARK  165  A    between atoms: _383  and  _384
REMARK  166  A    between atoms: _383  and  _386
REMARK  167  A    between atoms: _386  and  _387
REMARK  168  A    between atoms: _392  and  _394
REMARK  169  A    between atoms: _394  and  _395
REMARK  170  A    between atoms: _394  and  _397
REMARK  171  A    between atoms: _400  and  _402
REMARK  172  A    between atoms: _402  and  _403
REMARK  173  A    between atoms: _402  and  _405
REMARK  174  A    between atoms: _405  and  _406
REMARK  175  A    between atoms: _406  and  _407
REMARK  176  A    between atoms: _407  and  _408
REMARK  177  A    between atoms: _417  and  _419
REMARK  178  A    between atoms: _419  and  _420
REMARK  179  A    between atoms: _419  and  _422
REMARK  180  A    between atoms: _422  and  _423
REMARK  181  A    between atoms: _428  and  _430
REMARK  182  A    between atoms: _430  and  _431
REMARK  183  A    between atoms: _430  and  _433
REMARK  184  A    between atoms: _433  and  _434
REMARK  185  A    between atoms: _440  and  _442
REMARK  186  A    between atoms: _442  and  _443
REMARK  187  A    between atoms: _442  and  _445
REMARK  188  A    between atoms: _445  and  _446
REMARK  189  A    between atoms: _448  and  _450
REMARK  190  A    between atoms: _450  and  _451
REMARK  191  A    between atoms: _450  and  _453
REMARK  192  A    between atoms: _453  and  _454
REMARK  193  A    between atoms: _454  and  _455
REMARK  194  A    between atoms: _458  and  _460
REMARK  195  A    between atoms: _460  and  _461
REMARK  196  A    between atoms: _460  and  _463
REMARK  197  A    between atoms: _463  and  _464
REMARK  198  A    between atoms: _466  and  _468
REMARK  199  A    between atoms: _468  and  _469
REMARK  200  A    between atoms: _468  and  _471
REMARK  201  A    between atoms: _471  and  _472
REMARK  202  A    between atoms: _472  and  _473
REMARK  203  A    between atoms: _476  and  _478
REMARK  204  A    between atoms: _478  and  _479
REMARK  205  A    between atoms: _478  and  _481
REMARK  206  A    between atoms: _481  and  _482
REMARK  207  A    between atoms: _485  and  _487
REMARK  208  A    between atoms: _487  and  _488
REMARK  209  A    between atoms: _487  and  _490
REMARK  210  A    between atoms: _490  and  _491
REMARK  211  A    between atoms: _497  and  _499
REMARK  212  A    between atoms: _499  and  _500
REMARK  213  A    between atoms: _499  and  _502
REMARK  214  A    between atoms: _502  and  _503
REMARK  215  A    between atoms: _508  and  _509
REMARK  216  A    between atoms: _511  and  _513
REMARK  217  A    between atoms: _513  and  _514
REMARK  218  A    between atoms: _513  and  _516
REMARK  219  A    between atoms: _516  and  _517
REMARK  220  A    between atoms: _520  and  _522
REMARK  221  A    between atoms: _522  and  _523
REMARK  222  A    between atoms: _522  and  _525
REMARK  223  A    between atoms: _525  and  _526
REMARK  224  A    between atoms: _529  and  _531
REMARK  225  A    between atoms: _531  and  _532
REMARK  226  A    between atoms: _531  and  _534
REMARK  227  A    between atoms: _534  and  _535
REMARK  228  A    between atoms: _540  and  _542
REMARK  229  A    between atoms: _542  and  _543
REMARK  230  A    between atoms: _542  and  _545
REMARK                            x       y       z     vdW  Elec       q    Type
REMARK                         _______ _______ _______ _____ _____    ______ ____
ROOT
ATOM      1  C   SER A   1      18.815  62.043  22.639  0.00  0.00    +0.241 C 
ATOM      2  O   SER A   1      18.390  62.446  23.671  0.00  0.00    -0.274 OA
ATOM      3  N   ALA A   2      19.950  61.384  22.567  0.00  0.00    -0.298 N 
ATOM      4  H   ALA A   2      20.311  61.079  21.641  0.00  0.00    +0.150 HD
ENDROOT
BRANCH   3   5
ATOM      5  CA  ALA A   2      20.718  61.073  23.792  0.00  0.00    +0.137 C 
ATOM      6  CB  ALA A   2      19.987  59.969  24.591  0.00  0.00    +0.030 C 
BRANCH   5   7
ATOM      7  C   ALA A   2      22.125  60.551  23.466  0.00  0.00    +0.227 C 
ATOM      8  O   ALA A   2      22.493  60.369  22.306  0.00  0.00    -0.286 OA
ENDBRANCH   5   7
ENDBRANCH   3   5
BRANCH   1   9
ATOM      9  CA  SER A   1      18.114  62.367  21.338  0.00  0.00    +0.174 C 
BRANCH   9  10
ATOM     10  N   SER A   1      19.096  62.348  20.258  0.00  0.00    -0.236 NA
ATOM     11  H   SER A   1      19.106  61.582  19.554  0.00  0.00    +0.142 HD
ENDBRANCH   9  10
BRANCH   9  12
ATOM     12  CB  SER A   1      17.006  61.370  21.088  0.00  0.00    +0.163 C 
BRANCH  12  13
ATOM     13  OG  SER A   1      17.549  60.076  21.061  0.00  0.00    -0.380 OA
ATOM     14  H   SER A   1      18.221  60.016  20.336  0.00  0.00    +0.211 HD
ENDBRANCH  12  13
ENDBRANCH   9  12
ENDBRANCH   1   9
TORSDOF 6
REMARK  Name = ../refined-set-2016/1m0o/1m0o_pocket.pdb
REMARK  230 active torsions:
REMARK  status: ('A' for Active; 'I' for Inactive)
REMARK    1  A    between atoms: _1  and  _3
REMARK    2  A    between atoms: _3  and  _4
REMARK    3  A    between atoms: _3  and  _6
REMARK    4  A    between atoms: _6  and  _7
REMARK    5  A    between atoms: _10  and  _12
REMARK    6  A    between atoms: _12  and  _13
REMARK    7  A    between atoms: _15  and  _17
REMARK    8  A    between atoms: _17  and  _18
REMARK    9  A    between atoms: _17  and  _20
REMARK   10  A    between atoms: _20  and  _21
REMARK   11  A    between atoms: _21  and  _22
REMARK   12  A    between atoms: _27  and  _29
REMARK   13  A    between atoms: _29  and  _30
REMARK   14  A    between atoms: _29  and  _32
REMARK   15  A    between atoms: _32  and  _33
REMARK   16  A    between atoms: _33  and  _34
REMARK   17  A    between atoms: _36  and  _38
REMARK   18  A    between atoms: _38  and  _39
REMARK   19  A    between atoms: _38  and  _41
REMARK   20  A    between atoms: _41  and  _42
REMARK   21  A    between atoms: _44  and  _46
REMARK   22  A    between atoms: _46  and  _47
REMARK   23  A    between atoms: _46  and  _49
REMARK   24  A    between atoms: _49  and  _50
REMARK   25  A    between atoms: _52  and  _54
REMARK   26  A    between atoms: _54  and  _55
REMARK   27  A    between atoms: _54  and  _57
REMARK   28  A    between atoms: _57  and  _58
REMARK   29  A    between atoms: _61  and  _63
REMARK   30  A    between atoms: _63  and  _64
REMARK   31  A    between atoms: _66  and  _68
REMARK   32  A    between atoms: _68  and  _69
REMARK   33  A    between atoms: _72  and  _74
REMARK   34  A    between atoms: _74  and  _75
REMARK   35  A    between atoms: _74  and  _77
REMARK   36  A    between atoms: _77  and  _78
REMARK   37  A    between atoms: _78  and  _79
REMARK   38  A    between atoms: _82  and  _84
REMARK   39  A    between atoms: _84  and  _85
REMARK   40  A    between atoms: _84  and  _87
REMARK   41  A    between atoms: _87  and  _88
REMARK   42  A    between atoms: _90  and  _92
REMARK   43  A    between atoms: _92  and  _93
REMARK   44  A    between atoms: _92  and  _95
REMARK   45  A    between atoms: _95  and  _96
REMARK   46  A    between atoms: _101  and  _103
REMARK   47  A    between atoms: _103  and  _104
REMARK   48  A    between atoms: _103  and  _106
REMARK   49  A    between atoms: _106  and  _107
REMARK   50  A    between atoms: _107  and  _108
REMARK   51  A    between atoms: _111  and  _113
REMARK   52  A    between atoms: _113  and  _114
REMARK   53  A    between atoms: _113  and  _116
REMARK   54  A    between atoms: _116  and  _117
REMARK   55  A    between atoms: _119  and  _121
REMARK   56  A    between atoms: _121  and  _122
REMARK   57  A    between atoms: _121  and  _124
REMARK   58  A    between atoms: _124  and  _125
REMARK   59  A    between atoms: _135  and  _137
REMARK   60  A    between atoms: _137  and  _138
REMARK   61  A    between atoms: _137  and  _140
REMARK   62  A    between atoms: _140  and  _141
REMARK   63  A    between atoms: _146  and  _148
REMARK   64  A    between atoms: _148  and  _149
REMARK   65  A    between atoms: _151  and  _153
REMARK   66  A    between atoms: _153  and  _154
REMARK   67  A    between atoms: _153  and  _156
REMARK   68  A    between atoms: _156  and  _157
REMARK   69  A    between atoms: _157  and  _158
REMARK   70  A    between atoms: _160  and  _162
REMARK   71  A    between atoms: _162  and  _163
REMARK   72  A    between atoms: _162  and  _165
REMARK   73  A    between atoms: _165  and  _166
REMARK   74  A    between atoms: _169  and  _171
REMARK   75  A    between atoms: _171  and  _172
REMARK   76  A    between atoms: _175  and  _177
REMARK   77  A    between atoms: _177  and  _178
REMARK   78  A    between atoms: _177  and  _180
REMARK   79  A    between atoms: _180  and  _181
REMARK   80  A    between atoms: _184  and  _186
REMARK   81  A    between atoms: _186  and  _187
REMARK   82  A    between atoms: _186  and  _189
REMARK   83  A    between atoms: _189  and  _190
REMARK   84  A    between atoms: _192  and  _194
REMARK   85  A    between atoms: _194  and  _195
REMARK   86  A    between atoms: _198  and  _200
REMARK   87  A    between atoms: _200  and  _201
REMARK   88  A    between atoms: _200  and  _203
REMARK   89  A    between atoms: _203  and  _205
REMARK   90  A    between atoms: _207  and  _209
REMARK   91  A    between atoms: _209  and  _210
REMARK   92  A    between atoms: _213  and  _215
REMARK   93  A    between atoms: _215  and  _216
REMARK   94  A    between atoms: _215  and  _218
REMARK   95  A    between atoms: _218  and  _219
REMARK   96  A    between atoms: _219  and  _220
REMARK   97  A    between atoms: _224  and  _225
REMARK   98  A    between atoms: _230  and  _232
REMARK   99  A    between atoms: _232  and  _233
REMARK  100  A    between atoms: _232  and  _235
REMARK  101  A    between atoms: _235  and  _236
REMARK  102  A    between atoms: _239  and  _241
REMARK  103  A    between atoms: _241  and  _242
REMARK  104  A    between atoms: _241  and  _244
REMARK  105  A    between atoms: _244  and  _245
REMARK  106  A    between atoms: _248  and  _250
REMARK  107  A    between atoms: _250  and  _251
REMARK  108  A    between atoms: _250  and  _253
REMARK  109  A    between atoms: _253  and  _254
REMARK  110  A    between atoms: _256  and  _258
REMARK  111  A    between atoms: _258  and  _259
REMARK  112  A    between atoms: _258  and  _261
REMARK  113  A    between atoms: _261  and  _262
REMARK  114  A    between atoms: _264  and  _266
REMARK  115  A    between atoms: _266  and  _267
REMARK  116  A    between atoms: _269  and  _271
REMARK  117  A    between atoms: _271  and  _272
REMARK  118  A    between atoms: _274  and  _276
REMARK  119  A    between atoms: _276  and  _277
REMARK  120  A    between atoms: _276  and  _279
REMARK  121  A    between atoms: _279  and  _280
REMARK  122  A    between atoms: _283  and  _285
REMARK  123  A    between atoms: _285  and  _286
REMARK  124  A    between atoms: _285  and  _288
REMARK  125  A    between atoms: _288  and  _289
REMARK  126  A    between atoms: _289  and  _290
REMARK  127  A    between atoms: _293  and  _295
REMARK  128  A    between atoms: _295  and  _296
REMARK  129  A    between atoms: _299  and  _301
REMARK  130  A    between atoms: _301  and  _302
REMARK  131  A    between atoms: _301  and  _304
REMARK  132  A    between atoms: _304  and  _305
REMARK  133  A    between atoms: _305  and  _306
REMARK  134  A    between atoms: _311  and  _313
REMARK  135  A    between atoms: _313  and  _314
REMARK  136  A    between atoms: _313  and  _316
REMARK  137  A    between atoms: _316  and  _317
REMARK  138  A    between atoms: _320  and  _322
REMARK  139  A    between atoms: _322  and  _323
REMARK  140  A    between atoms: _322  and  _325
REMARK  141  A    between atoms: _325  and  _326
REMARK  142  A    between atoms: _329  and  _331
REMARK  143  A    between atoms: _331  and  _332
REMARK  144  A    between atoms: _331  and  _334
REMARK  145  A    between atoms: _334  and  _335
REMARK  146  A    between atoms: _338  and  _340
REMARK  147  A    between atoms: _340  and  _341
REMARK  148  A    between atoms: _340  and  _343
REMARK  149  A    between atoms: _343  and  _344
REMARK  150  A    between atoms: _346  and  _348
REMARK  151  A    between atoms: _348  and  _349
REMARK  152  A    between atoms: _348  and  _351
REMARK  153  A    between atoms: _351  and  _352
REMARK  154  A    between atoms: _352  and  _353
REMARK  155  A    between atoms: _353  and  _354
REMARK  156  A    between atoms: _354  and  _355
REMARK  157  A    between atoms: _360  and  _361
REMARK  158  A    between atoms: _366  and  _368
REMARK  159  A    between atoms: _368  and  _369
REMARK  160  A    between atoms: _368  and  _371
REMARK  161  A    between atoms: _371  and  _372
REMARK  162  A    between atoms: _375  and  _377
REMARK  163  A    between atoms: _377  and  _378
REMARK  164  A    between atoms: _381  and  _383
REMARK  165  A    between atoms: _383  and  _384
REMARK  166  A    between atoms: _383  and  _386
REMARK  167  A    between atoms: _386  and  _387
REMARK  168  A    between atoms: _392  and  _394
REMARK  169  A    between atoms: _394  and  _395
REMARK  170  A    between atoms: _394  and  _397
REMARK  171  A    between atoms: _400  and  _402
REMARK  172  A    between atoms: _402  and  _403
REMARK  173  A    between atoms: _402  and  _405
REMARK  174  A    between atoms: _405  and  _406
REMARK  175  A    between atoms: _406  and  _407
REMARK  176  A    between atoms: _407  and  _408
REMARK  177  A    between atoms: _417  and  _419
REMARK  178  A    between atoms: _419  and  _420
REMARK  179  A    between atoms: _419  and  _422
REMARK  180  A    between atoms: _422  and  _423
REMARK  181  A    between atoms: _428  and  _430
REMARK  182  A    between atoms: _430  and  _431
REMARK  183  A    between atoms: _430  and  _433
REMARK  184  A    between atoms: _433  and  _434
REMARK  185  A    between atoms: _440  and  _442
REMARK  186  A    between atoms: _442  and  _443
REMARK  187  A    between atoms: _442  and  _445
REMARK  188  A    between atoms: _445  and  _446
REMARK  189  A    between atoms: _448  and  _450
REMARK  190  A    between atoms: _450  and  _451
REMARK  191  A    between atoms: _450  and  _453
REMARK  192  A    between atoms: _453  and  _454
REMARK  193  A    between atoms: _454  and  _455
REMARK  194  A    between atoms: _458  and  _460
REMARK  195  A    between atoms: _460  and  _461
REMARK  196  A    between atoms: _460  and  _463
REMARK  197  A    between atoms: _463  and  _464
REMARK  198  A    between atoms: _466  and  _468
REMARK  199  A    between atoms: _468  and  _469
REMARK  200  A    between atoms: _468  and  _471
REMARK  201  A    between atoms: _471  and  _472
REMARK  202  A    between atoms: _472  and  _473
REMARK  203  A    between atoms: _476  and  _478
REMARK  204  A    between atoms: _478  and  _479
REMARK  205  A    between atoms: _478  and  _481
REMARK  206  A    between atoms: _481  and  _482
REMARK  207  A    between atoms: _485  and  _487
REMARK  208  A    between atoms: _487  and  _488
REMARK  209  A    between atoms: _487  and  _490
REMARK  210  A    between atoms: _490  and  _491
REMARK  211  A    between atoms: _497  and  _499
REMARK  212  A    between atoms: _499  and  _500
REMARK  213  A    between atoms: _499  and  _502
REMARK  214  A    between atoms: _502  and  _503
REMARK  215  A    between atoms: _508  and  _509
REMARK  216  A    between atoms: _511  and  _513
REMARK  217  A    between atoms: _513  and  _514
REMARK  218  A    between atoms: _513  and  _516
REMARK  219  A    between atoms: _516  and  _517
REMARK  220  A    between atoms: _520  and  _522
REMARK  221  A    between atoms: _522  and  _523
REMARK  222  A    between atoms: _522  and  _525
REMARK  223  A    between atoms: _525  and  _526
REMARK  224  A    between atoms: _529  and  _531
REMARK  225  A    between atoms: _531  and  _532
REMARK  226  A    between atoms: _531  and  _534
REMARK  227  A    between atoms: _534  and  _535
REMARK  228  A    between atoms: _540  and  _542
REMARK  229  A    between atoms: _542  and  _543
REMARK  230  A    between atoms: _542  and  _545
REMARK                            x       y       z     vdW  Elec       q    Type
REMARK                         _______ _______ _______ _____ _____    ______ ____
ROOT
ATOM      1  CA  ILE A   5       8.653  59.317  12.341  0.00  0.00    +0.149 C 
ENDROOT
BRANCH   1   2
ATOM      2  C   ILE A   5       9.753  59.117  13.457  0.00  0.00    +0.241 C 
ATOM      3  N   LEU A   6      10.064  60.153  14.209  0.00  0.00    -0.297 N 
ATOM      4  H   LEU A   6       9.545  61.045  14.085  0.00  0.00    +0.150 HD
ATOM      5  O   ILE A   5      10.381  58.077  13.543  0.00  0.00    -0.273 OA
BRANCH   3   6
ATOM      6  CA  LEU A   6      11.141  60.074  15.230  0.00  0.00    +0.149 C 
BRANCH   6   7
ATOM      7  C   LEU A   6      10.598  59.302  16.355  0.00  0.00    +0.241 C 
ATOM      8  O   LEU A   6       9.743  59.749  17.039  0.00  0.00    -0.273 OA
ATOM      9  N   SER A   7      11.085  58.112  16.523  0.00  0.00    -0.295 N 
ATOM     10  H   SER A   7      11.891  57.784  15.953  0.00  0.00    +0.150 HD
BRANCH   9  11
ATOM     11  CA  SER A   7      10.496  57.261  17.503  0.00  0.00    +0.178 C 
BRANCH  11  12
ATOM     12  C   SER A   7      10.990  57.570  18.874  0.00  0.00    +0.243 C 
ATOM     13  O   SER A   7      10.241  57.926  19.769  0.00  0.00    -0.273 OA
ATOM     14  N   SER A   8      12.258  57.380  19.074  0.00  0.00    -0.295 N 
ATOM     15  H   SER A   8      12.870  57.048  18.302  0.00  0.00    +0.150 HD
BRANCH  14  16
ATOM     16  CA  SER A   8      12.807  57.637  20.385  0.00  0.00    +0.178 C 
BRANCH  16  17
ATOM     17  C   SER A   8      12.681  59.142  20.602  0.00  0.00    +0.243 C 
ATOM     18  O   SER A   8      12.660  59.602  21.698  0.00  0.00    -0.273 OA
ATOM     19  N   GLY A   9      12.602  59.909  19.537  0.00  0.00    -0.295 N 
ATOM     20  H   GLY A   9      12.624  59.500  18.581  0.00  0.00    +0.150 HD
BRANCH  19  21
ATOM     21  CA  GLY A   9      12.486  61.316  19.730  0.00  0.00    +0.176 C 
BRANCH  21  22
ATOM     22  C   GLY A   9      11.101  61.679  20.332  0.00  0.00    +0.243 C 
ATOM     23  O   GLY A   9      10.864  62.811  20.690  0.00  0.00    -0.273 OA
ATOM     24  N   GLY A  10      10.176  60.737  20.416  0.00  0.00    -0.296 N 
ATOM     25  H   GLY A  10      10.369  59.775  20.072  0.00  0.00    +0.150 HD
BRANCH  24  26
ATOM     26  CA  GLY A  10       8.883  61.070  20.999  0.00  0.00    +0.163 C 
BRANCH  26  27
ATOM     27  C   GLY A  10       7.748  60.905  20.021  0.00  0.00    +0.229 C 
ATOM     28  O   GLY A  10       6.712  61.517  20.182  0.00  0.00    -0.286 OA
ENDBRANCH  26  27
ENDBRANCH  24  26
ENDBRANCH  21  22
ENDBRANCH  19  21
ENDBRANCH  16  17
BRANCH  16  29
ATOM     29  CB  SER A   8      14.297  57.204  20.412  0.00  0.00    +0.166 C 
BRANCH  29  30
ATOM     30  OG  SER A   8      15.112  58.176  19.723  0.00  0.00    -0.380 OA
ATOM     31  H   SER A   8      14.812  58.249  18.782  0.00  0.00    +0.211 HD
ENDBRANCH  29  30
ENDBRANCH  16  29
ENDBRANCH  14  16
ENDBRANCH  11  12
BRANCH  11  32
ATOM     32  CB  SER A   7      10.786  55.797  17.172  0.00  0.00    +0.166 C 
BRANCH  32  33
ATOM     33  OG  SER A   7      10.115  54.928  18.052  0.00  0.00    -0.380 OA
ATOM     34  H   SER A   7      10.323  53.991  17.811  0.00  0.00    +0.211 HD
ENDBRANCH  32  33
ENDBRANCH  11  32
ENDBRANCH   9  11
ENDBRANCH   6   7
BRANCH   6  35
ATOM     35  CB  LEU A   6      11.454  61.464  15.719  0.00  0.00    +0.029 C 
BRANCH  35  36
ATOM     36  CG  LEU A   6      12.426  62.131  14.711  0.00  0.00    +0.002 C 
ATOM     37  CD2 LEU A   6      13.192  63.315  15.301  0.00  0.00    +0.000 C 
ATOM     38  CD1 LEU A   6      11.883  62.447  13.283  0.00  0.00    +0.000 C 
ENDBRANCH  35  36
ENDBRANCH   6  35
ENDBRANCH   3   6
ENDBRANCH   1   2
BRANCH   1  40
ATOM     39  C   PRO A   4       9.255  59.860  10.011  0.00  0.00    +0.241 C 
ATOM     40  N   ILE A   5       9.306  59.038  11.056  0.00  0.00    -0.297 N 
ATOM     41  H   ILE A   5       9.837  58.149  10.957  0.00  0.00    +0.150 HD
ATOM     42  O   PRO A   4       8.588  60.898   9.999  0.00  0.00    -0.273 OA
BRANCH  39  49
ATOM     43  C   GLU A   3      12.269  59.539  10.007  0.00  0.00    +0.244 C 
ATOM     44  O   GLU A   3      12.102  60.750  10.228  0.00  0.00    -0.273 OA
ATOM     45  N   PRO A   4      11.368  58.826   9.335  0.00  0.00    -0.272 N 
ATOM     46  CD  PRO A   4      11.514  57.453   8.851  0.00  0.00    +0.094 C 
ATOM     47  CG  PRO A   4      10.584  57.394   7.652  0.00  0.00    +0.024 C 
ATOM     48  CB  PRO A   4       9.434  58.275   8.096  0.00  0.00    +0.031 C 
ATOM     49  CA  PRO A   4      10.103  59.441   8.826  0.00  0.00    +0.152 C 
BRANCH  43  50
ATOM     50  CA  GLU A   3      13.588  58.826  10.482  0.00  0.00    +0.149 C 
BRANCH  50  52
ATOM     51  C   ALA A   2      15.433  59.768   9.097  0.00  0.00    +0.241 C 
ATOM     52  N   GLU A   3      14.669  59.788  10.223  0.00  0.00    -0.297 N 
ATOM     53  H   GLU A   3      14.859  60.521  10.936  0.00  0.00    +0.150 HD
ATOM     54  O   ALA A   2      15.406  58.887   8.239  0.00  0.00    -0.273 OA
BRANCH  51  55
ATOM     55  CA  ALA A   2      16.360  60.929   8.924  0.00  0.00    +0.149 C 
ATOM     56  CB  ALA A   2      15.631  62.041   8.096  0.00  0.00    +0.031 C 
BRANCH  55  59
ATOM     57  C   ILE A   1      18.620  61.360   8.479  0.00  0.00    +0.238 C 
ATOM     58  O   ILE A   1      18.559  62.369   9.267  0.00  0.00    -0.274 OA
ATOM     59  N   ALA A   2      17.565  60.614   8.235  0.00  0.00    -0.297 N 
ATOM     60  H   ALA A   2      17.609  59.822   7.562  0.00  0.00    +0.150 HD
BRANCH  57  61
ATOM     61  CA  ILE A   1      19.830  61.070   7.641  0.00  0.00    +0.145 C 
BRANCH  61  62
ATOM     62  CB  ILE A   1      20.940  60.116   8.329  0.00  0.00    +0.025 C 
ATOM     63  CG2 ILE A   1      20.425  58.680   8.832  0.00  0.00    +0.002 C 
BRANCH  62  64
ATOM     64  CG1 ILE A   1      21.770  60.841   9.380  0.00  0.00    +0.002 C 
ATOM     65  CD1 ILE A   1      21.203  62.152   9.871  0.00  0.00    +0.000 C 
ENDBRANCH  62  64
ENDBRANCH  61  62
BRANCH  61  66
ATOM     66  N   ILE A   1      20.387  62.393   7.225  0.00  0.00    -0.238 NA
ATOM     67  H   ILE A   1      20.717  63.064   7.948  0.00  0.00    +0.142 HD
ENDBRANCH  61  66
ENDBRANCH  57  61
ENDBRANCH  55  59
ENDBRANCH  51  55
ENDBRANCH  50  52
BRANCH  50  68
ATOM     68  CB  GLU A   3      13.473  58.572  11.967  0.00  0.00    +0.041 C 
BRANCH  68  69
ATOM     69  CG  GLU A   3      14.708  57.924  12.685  0.00  0.00    +0.116 C 
BRANCH  69  70
ATOM     70  CD  GLU A   3      14.619  58.203  14.207  0.00  0.00    +0.365 C 
ATOM     71  OE2 GLU A   3      13.743  57.631  14.919  0.00  0.00    -0.246 OA
ATOM     72  OE1 GLU A   3      15.275  59.163  14.645  0.00  0.00    -0.246 OA
ENDBRANCH  69  70
ENDBRANCH  68  69
ENDBRANCH  50  68
ENDBRANCH  43  50
ENDBRANCH  39  49
ENDBRANCH   1  40
BRANCH   1  73
ATOM     73  CB  ILE A   5       7.459  58.404  12.586  0.00  0.00    +0.027 C 
ATOM     74  CG2 ILE A   5       6.827  58.718  13.904  0.00  0.00    +0.002 C 
BRANCH  73  75
ATOM     75  CG1 ILE A   5       6.396  58.643  11.539  0.00  0.00    +0.002 C 
ATOM     76  CD1 ILE A   5       5.148  57.797  11.729  0.00  0.00    +0.000 C 
ENDBRANCH  73  75
ENDBRANCH   1  73
TORSDOF 32
REMARK  Name = ../refined-set-2016/1m0o/1m0o_pocket.pdb
REMARK  230 active torsions:
REMARK  status: ('A' for Active; 'I' for Inactive)
REMARK    1  A    between atoms: _1  and  _3
REMARK    2  A    between atoms: _3  and  _4
REMARK    3  A    between atoms: _3  and  _6
REMARK    4  A    between atoms: _6  and  _7
REMARK    5  A    between atoms: _10  and  _12
REMARK    6  A    between atoms: _12  and  _13
REMARK    7  A    between atoms: _15  and  _17
REMARK    8  A    between atoms: _17  and  _18
REMARK    9  A    between atoms: _17  and  _20
REMARK   10  A    between atoms: _20  and  _21
REMARK   11  A    between atoms: _21  and  _22
REMARK   12  A    between atoms: _27  and  _29
REMARK   13  A    between atoms: _29  and  _30
REMARK   14  A    between atoms: _29  and  _32
REMARK   15  A    between atoms: _32  and  _33
REMARK   16  A    between atoms: _33  and  _34
REMARK   17  A    between atoms: _36  and  _38
REMARK   18  A    between atoms: _38  and  _39
REMARK   19  A    between atoms: _38  and  _41
REMARK   20  A    between atoms: _41  and  _42
REMARK   21  A    between atoms: _44  and  _46
REMARK   22  A    between atoms: _46  and  _47
REMARK   23  A    between atoms: _46  and  _49
REMARK   24  A    between atoms: _49  and  _50
REMARK   25  A    between atoms: _52  and  _54
REMARK   26  A    between atoms: _54  and  _55
REMARK   27  A    between atoms: _54  and  _57
REMARK   28  A    between atoms: _57  and  _58
REMARK   29  A    between atoms: _61  and  _63
REMARK   30  A    between atoms: _63  and  _64
REMARK   31  A    between atoms: _66  and  _68
REMARK   32  A    between atoms: _68  and  _69
REMARK   33  A    between atoms: _72  and  _74
REMARK   34  A    between atoms: _74  and  _75
REMARK   35  A    between atoms: _74  and  _77
REMARK   36  A    between atoms: _77  and  _78
REMARK   37  A    between atoms: _78  and  _79
REMARK   38  A    between atoms: _82  and  _84
REMARK   39  A    between atoms: _84  and  _85
REMARK   40  A    between atoms: _84  and  _87
REMARK   41  A    between atoms: _87  and  _88
REMARK   42  A    between atoms: _90  and  _92
REMARK   43  A    between atoms: _92  and  _93
REMARK   44  A    between atoms: _92  and  _95
REMARK   45  A    between atoms: _95  and  _96
REMARK   46  A    between atoms: _101  and  _103
REMARK   47  A    between atoms: _103  and  _104
REMARK   48  A    between atoms: _103  and  _106
REMARK   49  A    between atoms: _106  and  _107
REMARK   50  A    between atoms: _107  and  _108
REMARK   51  A    between atoms: _111  and  _113
REMARK   52  A    between atoms: _113  and  _114
REMARK   53  A    between atoms: _113  and  _116
REMARK   54  A    between atoms: _116  and  _117
REMARK   55  A    between atoms: _119  and  _121
REMARK   56  A    between atoms: _121  and  _122
REMARK   57  A    between atoms: _121  and  _124
REMARK   58  A    between atoms: _124  and  _125
REMARK   59  A    between atoms: _135  and  _137
REMARK   60  A    between atoms: _137  and  _138
REMARK   61  A    between atoms: _137  and  _140
REMARK   62  A    between atoms: _140  and  _141
REMARK   63  A    between atoms: _146  and  _148
REMARK   64  A    between atoms: _148  and  _149
REMARK   65  A    between atoms: _151  and  _153
REMARK   66  A    between atoms: _153  and  _154
REMARK   67  A    between atoms: _153  and  _156
REMARK   68  A    between atoms: _156  and  _157
REMARK   69  A    between atoms: _157  and  _158
REMARK   70  A    between atoms: _160  and  _162
REMARK   71  A    between atoms: _162  and  _163
REMARK   72  A    between atoms: _162  and  _165
REMARK   73  A    between atoms: _165  and  _166
REMARK   74  A    between atoms: _169  and  _171
REMARK   75  A    between atoms: _171  and  _172
REMARK   76  A    between atoms: _175  and  _177
REMARK   77  A    between atoms: _177  and  _178
REMARK   78  A    between atoms: _177  and  _180
REMARK   79  A    between atoms: _180  and  _181
REMARK   80  A    between atoms: _184  and  _186
REMARK   81  A    between atoms: _186  and  _187
REMARK   82  A    between atoms: _186  and  _189
REMARK   83  A    between atoms: _189  and  _190
REMARK   84  A    between atoms: _192  and  _194
REMARK   85  A    between atoms: _194  and  _195
REMARK   86  A    between atoms: _198  and  _200
REMARK   87  A    between atoms: _200  and  _201
REMARK   88  A    between atoms: _200  and  _203
REMARK   89  A    between atoms: _203  and  _205
REMARK   90  A    between atoms: _207  and  _209
REMARK   91  A    between atoms: _209  and  _210
REMARK   92  A    between atoms: _213  and  _215
REMARK   93  A    between atoms: _215  and  _216
REMARK   94  A    between atoms: _215  and  _218
REMARK   95  A    between atoms: _218  and  _219
REMARK   96  A    between atoms: _219  and  _220
REMARK   97  A    between atoms: _224  and  _225
REMARK   98  A    between atoms: _230  and  _232
REMARK   99  A    between atoms: _232  and  _233
REMARK  100  A    between atoms: _232  and  _235
REMARK  101  A    between atoms: _235  and  _236
REMARK  102  A    between atoms: _239  and  _241
REMARK  103  A    between atoms: _241  and  _242
REMARK  104  A    between atoms: _241  and  _244
REMARK  105  A    between atoms: _244  and  _245
REMARK  106  A    between atoms: _248  and  _250
REMARK  107  A    between atoms: _250  and  _251
REMARK  108  A    between atoms: _250  and  _253
REMARK  109  A    between atoms: _253  and  _254
REMARK  110  A    between atoms: _256  and  _258
REMARK  111  A    between atoms: _258  and  _259
REMARK  112  A    between atoms: _258  and  _261
REMARK  113  A    between atoms: _261  and  _262
REMARK  114  A    between atoms: _264  and  _266
REMARK  115  A    between atoms: _266  and  _267
REMARK  116  A    between atoms: _269  and  _271
REMARK  117  A    between atoms: _271  and  _272
REMARK  118  A    between atoms: _274  and  _276
REMARK  119  A    between atoms: _276  and  _277
REMARK  120  A    between atoms: _276  and  _279
REMARK  121  A    between atoms: _279  and  _280
REMARK  122  A    between atoms: _283  and  _285
REMARK  123  A    between atoms: _285  and  _286
REMARK  124  A    between atoms: _285  and  _288
REMARK  125  A    between atoms: _288  and  _289
REMARK  126  A    between atoms: _289  and  _290
REMARK  127  A    between atoms: _293  and  _295
REMARK  128  A    between atoms: _295  and  _296
REMARK  129  A    between atoms: _299  and  _301
REMARK  130  A    between atoms: _301  and  _302
REMARK  131  A    between atoms: _301  and  _304
REMARK  132  A    between atoms: _304  and  _305
REMARK  133  A    between atoms: _305  and  _306
REMARK  134  A    between atoms: _311  and  _313
REMARK  135  A    between atoms: _313  and  _314
REMARK  136  A    between atoms: _313  and  _316
REMARK  137  A    between atoms: _316  and  _317
REMARK  138  A    between atoms: _320  and  _322
REMARK  139  A    between atoms: _322  and  _323
REMARK  140  A    between atoms: _322  and  _325
REMARK  141  A    between atoms: _325  and  _326
REMARK  142  A    between atoms: _329  and  _331
REMARK  143  A    between atoms: _331  and  _332
REMARK  144  A    between atoms: _331  and  _334
REMARK  145  A    between atoms: _334  and  _335
REMARK  146  A    between atoms: _338  and  _340
REMARK  147  A    between atoms: _340  and  _341
REMARK  148  A    between atoms: _340  and  _343
REMARK  149  A    between atoms: _343  and  _344
REMARK  150  A    between atoms: _346  and  _348
REMARK  151  A    between atoms: _348  and  _349
REMARK  152  A    between atoms: _348  and  _351
REMARK  153  A    between atoms: _351  and  _352
REMARK  154  A    between atoms: _352  and  _353
REMARK  155  A    between atoms: _353  and  _354
REMARK  156  A    between atoms: _354  and  _355
REMARK  157  A    between atoms: _360  and  _361
REMARK  158  A    between atoms: _366  and  _368
REMARK  159  A    between atoms: _368  and  _369
REMARK  160  A    between atoms: _368  and  _371
REMARK  161  A    between atoms: _371  and  _372
REMARK  162  A    between atoms: _375  and  _377
REMARK  163  A    between atoms: _377  and  _378
REMARK  164  A    between atoms: _381  and  _383
REMARK  165  A    between atoms: _383  and  _384
REMARK  166  A    between atoms: _383  and  _386
REMARK  167  A    between atoms: _386  and  _387
REMARK  168  A    between atoms: _392  and  _394
REMARK  169  A    between atoms: _394  and  _395
REMARK  170  A    between atoms: _394  and  _397
REMARK  171  A    between atoms: _400  and  _402
REMARK  172  A    between atoms: _402  and  _403
REMARK  173  A    between atoms: _402  and  _405
REMARK  174  A    between atoms: _405  and  _406
REMARK  175  A    between atoms: _406  and  _407
REMARK  176  A    between atoms: _407  and  _408
REMARK  177  A    between atoms: _417  and  _419
REMARK  178  A    between atoms: _419  and  _420
REMARK  179  A    between atoms: _419  and  _422
REMARK  180  A    between atoms: _422  and  _423
REMARK  181  A    between atoms: _428  and  _430
REMARK  182  A    between atoms: _430  and  _431
REMARK  183  A    between atoms: _430  and  _433
REMARK  184  A    between atoms: _433  and  _434
REMARK  185  A    between atoms: _440  and  _442
REMARK  186  A    between atoms: _442  and  _443
REMARK  187  A    between atoms: _442  and  _445
REMARK  188  A    between atoms: _445  and  _446
REMARK  189  A    between atoms: _448  and  _450
REMARK  190  A    between atoms: _450  and  _451
REMARK  191  A    between atoms: _450  and  _453
REMARK  192  A    between atoms: _453  and  _454
REMARK  193  A    between atoms: _454  and  _455
REMARK  194  A    between atoms: _458  and  _460
REMARK  195  A    between atoms: _460  and  _461
REMARK  196  A    between atoms: _460  and  _463
REMARK  197  A    between atoms: _463  and  _464
REMARK  198  A    between atoms: _466  and  _468
REMARK  199  A    between atoms: _468  and  _469
REMARK  200  A    between atoms: _468  and  _471
REMARK  201  A    between atoms: _471  and  _472
REMARK  202  A    between atoms: _472  and  _473
REMARK  203  A    between atoms: _476  and  _478
REMARK  204  A    between atoms: _478  and  _479
REMARK  205  A    between atoms: _478  and  _481
REMARK  206  A    between atoms: _481  and  _482
REMARK  207  A    between atoms: _485  and  _487
REMARK  208  A    between atoms: _487  and  _488
REMARK  209  A    between atoms: _487  and  _490
REMARK  210  A    between atoms: _490  and  _491
REMARK  211  A    between atoms: _497  and  _499
REMARK  212  A    between atoms: _499  and  _500
REMARK  213  A    between atoms: _499  and  _502
REMARK  214  A    between atoms: _502  and  _503
REMARK  215  A    between atoms: _508  and  _509
REMARK  216  A    between atoms: _511  and  _513
REMARK  217  A    between atoms: _513  and  _514
REMARK  218  A    between atoms: _513  and  _516
REMARK  219  A    between atoms: _516  and  _517
REMARK  220  A    between atoms: _520  and  _522
REMARK  221  A    between atoms: _522  and  _523
REMARK  222  A    between atoms: _522  and  _525
REMARK  223  A    between atoms: _525  and  _526
REMARK  224  A    between atoms: _529  and  _531
REMARK  225  A    between atoms: _531  and  _532
REMARK  226  A    between atoms: _531  and  _534
REMARK  227  A    between atoms: _534  and  _535
REMARK  228  A    between atoms: _540  and  _542
REMARK  229  A    between atoms: _542  and  _543
REMARK  230  A    between atoms: _542  and  _545
REMARK                            x       y       z     vdW  Elec       q    Type
REMARK                         _______ _______ _______ _____ _____    ______ ____
ROOT
ATOM      1  CA  ALA A   3      14.121  50.643  11.237  0.00  0.00    +0.149 C 
ATOM      2  CB  ALA A   3      15.171  50.953  12.278  0.00  0.00    +0.031 C 
ENDROOT
BRANCH   1   4
ATOM      3  C   GLU A   2      13.041  51.830   9.398  0.00  0.00    +0.241 C 
ATOM      4  N   ALA A   3      14.041  51.751  10.263  0.00  0.00    -0.297 N 
ATOM      5  H   ALA A   3      14.782  52.481  10.256  0.00  0.00    +0.150 HD
ATOM      6  O   GLU A   2      12.161  50.951   9.314  0.00  0.00    -0.273 OA
BRANCH   3   7
ATOM      7  CA  GLU A   2      13.045  53.078   8.480  0.00  0.00    +0.149 C 
BRANCH   7  10
ATOM      8  C   ASP A   1      14.781  54.773   8.796  0.00  0.00    +0.239 C 
ATOM      9  O   ASP A   1      14.052  55.461   9.595  0.00  0.00    -0.274 OA
ATOM     10  N   GLU A   2      14.379  53.636   8.231  0.00  0.00    -0.297 N 
ATOM     11  H   GLU A   2      15.028  53.130   7.596  0.00  0.00    +0.150 HD
BRANCH   8  12
ATOM     12  CA  ASP A   1      16.198  55.239   8.423  0.00  0.00    +0.156 C 
BRANCH  12  13
ATOM     13  N   ASP A   1      15.989  56.320   7.521  0.00  0.00    -0.238 NA
ATOM     14  H   ASP A   1      15.782  57.269   7.893  0.00  0.00    +0.142 HD
ENDBRANCH  12  13
BRANCH  12  15
ATOM     15  CB  ASP A   1      16.996  55.798   9.679  0.00  0.00    +0.140 C 
BRANCH  15  16
ATOM     16  CG  ASP A   1      17.204  54.719  10.762  0.00  0.00    +0.367 C 
ATOM     17  OD2 ASP A   1      17.813  55.014  11.824  0.00  0.00    -0.246 OA
ATOM     18  OD1 ASP A   1      16.700  53.580  10.548  0.00  0.00    -0.246 OA
ENDBRANCH  15  16
ENDBRANCH  12  15
ENDBRANCH   8  12
ENDBRANCH   7  10
BRANCH   7  19
ATOM     19  CB  GLU A   2      12.389  52.779   7.137  0.00  0.00    +0.041 C 
BRANCH  19  20
ATOM     20  CG  GLU A   2      11.918  54.104   6.417  0.00  0.00    +0.116 C 
BRANCH  20  21
ATOM     21  CD  GLU A   2      10.466  53.969   5.893  0.00  0.00    +0.365 C 
ATOM     22  OE2 GLU A   2       9.682  53.174   6.454  0.00  0.00    -0.246 OA
ATOM     23  OE1 GLU A   2      10.192  54.472   4.817  0.00  0.00    -0.246 OA
ENDBRANCH  20  21
ENDBRANCH  19  20
ENDBRANCH   7  19
ENDBRANCH   3   7
ENDBRANCH   1   4
BRANCH   1  24
ATOM     24  C   ALA A   3      12.796  50.362  11.962  0.00  0.00    +0.241 C 
ATOM     25  N   GLN A   4      12.094  51.424  12.383  0.00  0.00    -0.297 N 
ATOM     26  H   GLN A   4      12.432  52.390  12.199  0.00  0.00    +0.150 HD
ATOM     27  O   ALA A   3      12.449  49.201  12.229  0.00  0.00    -0.273 OA
BRANCH  25  28
ATOM     28  CA  GLN A   4      10.834  51.194  13.112  0.00  0.00    +0.149 C 
BRANCH  28  29
ATOM     29  C   GLN A   4       9.674  51.435  12.259  0.00  0.00    +0.241 C 
ATOM     30  O   GLN A   4       8.618  51.033  12.587  0.00  0.00    -0.273 OA
ATOM     31  N   THR A   5       9.844  52.173  11.184  0.00  0.00    -0.296 N 
ATOM     32  H   THR A   5      10.776  52.572  10.953  0.00  0.00    +0.150 HD
BRANCH  31  33
ATOM     33  CA  THR A   5       8.702  52.415  10.333  0.00  0.00    +0.164 C 
BRANCH  33  34
ATOM     34  C   THR A   5       8.478  51.417   9.161  0.00  0.00    +0.229 C 
ATOM     35  O   THR A   5       7.417  51.329   8.630  0.00  0.00    -0.286 OA
ENDBRANCH  33  34
BRANCH  33  36
ATOM     36  CB  THR A   5       8.743  53.786   9.809  0.00  0.00    +0.136 C 
ATOM     37  CG2 THR A   5       8.718  54.757  10.981  0.00  0.00    +0.034 C 
BRANCH  36  38
ATOM     38  OG1 THR A   5       9.930  53.961   8.998  0.00  0.00    -0.382 OA
ATOM     39  HG1 THR A   5       9.910  53.320   8.243  0.00  0.00    +0.210 HD
ENDBRANCH  36  38
ENDBRANCH  33  36
ENDBRANCH  31  33
ENDBRANCH  28  29
BRANCH  28  40
ATOM     40  CB  GLN A   4      10.710  52.112  14.325  0.00  0.00    +0.039 C 
BRANCH  40  41
ATOM     41  CG  GLN A   4      11.920  52.111  15.177  0.00  0.00    +0.087 C 
BRANCH  41  42
ATOM     42  CD  GLN A   4      11.654  52.398  16.598  0.00  0.00    +0.219 C 
ATOM     43  NE2 GLN A   4      12.725  52.675  17.371  0.00  0.00    -0.329 N 
ATOM     44 HE21 GLN A   4      12.600  52.855  18.388  0.00  0.00    +0.145 HD
ATOM     45 HE22 GLN A   4      13.675  52.709  16.950  0.00  0.00    +0.145 HD
ATOM     46  OE1 GLN A   4      10.518  52.345  17.034  0.00  0.00    -0.275 OA
ENDBRANCH  41  42
ENDBRANCH  40  41
ENDBRANCH  28  40
ENDBRANCH  25  28
ENDBRANCH   1  24
TORSDOF 20
REMARK  Name = ../refined-set-2016/1m0o/1m0o_pocket.pdb
REMARK  230 active torsions:
REMARK  status: ('A' for Active; 'I' for Inactive)
REMARK    1  A    between atoms: _1  and  _3
REMARK    2  A    between atoms: _3  and  _4
REMARK    3  A    between atoms: _3  and  _6
REMARK    4  A    between atoms: _6  and  _7
REMARK    5  A    between atoms: _10  and  _12
REMARK    6  A    between atoms: _12  and  _13
REMARK    7  A    between atoms: _15  and  _17
REMARK    8  A    between atoms: _17  and  _18
REMARK    9  A    between atoms: _17  and  _20
REMARK   10  A    between atoms: _20  and  _21
REMARK   11  A    between atoms: _21  and  _22
REMARK   12  A    between atoms: _27  and  _29
REMARK   13  A    between atoms: _29  and  _30
REMARK   14  A    between atoms: _29  and  _32
REMARK   15  A    between atoms: _32  and  _33
REMARK   16  A    between atoms: _33  and  _34
REMARK   17  A    between atoms: _36  and  _38
REMARK   18  A    between atoms: _38  and  _39
REMARK   19  A    between atoms: _38  and  _41
REMARK   20  A    between atoms: _41  and  _42
REMARK   21  A    between atoms: _44  and  _46
REMARK   22  A    between atoms: _46  and  _47
REMARK   23  A    between atoms: _46  and  _49
REMARK   24  A    between atoms: _49  and  _50
REMARK   25  A    between atoms: _52  and  _54
REMARK   26  A    between atoms: _54  and  _55
REMARK   27  A    between atoms: _54  and  _57
REMARK   28  A    between atoms: _57  and  _58
REMARK   29  A    between atoms: _61  and  _63
REMARK   30  A    between atoms: _63  and  _64
REMARK   31  A    between atoms: _66  and  _68
REMARK   32  A    between atoms: _68  and  _69
REMARK   33  A    between atoms: _72  and  _74
REMARK   34  A    between atoms: _74  and  _75
REMARK   35  A    between atoms: _74  and  _77
REMARK   36  A    between atoms: _77  and  _78
REMARK   37  A    between atoms: _78  and  _79
REMARK   38  A    between atoms: _82  and  _84
REMARK   39  A    between atoms: _84  and  _85
REMARK   40  A    between atoms: _84  and  _87
REMARK   41  A    between atoms: _87  and  _88
REMARK   42  A    between atoms: _90  and  _92
REMARK   43  A    between atoms: _92  and  _93
REMARK   44  A    between atoms: _92  and  _95
REMARK   45  A    between atoms: _95  and  _96
REMARK   46  A    between atoms: _101  and  _103
REMARK   47  A    between atoms: _103  and  _104
REMARK   48  A    between atoms: _103  and  _106
REMARK   49  A    between atoms: _106  and  _107
REMARK   50  A    between atoms: _107  and  _108
REMARK   51  A    between atoms: _111  and  _113
REMARK   52  A    between atoms: _113  and  _114
REMARK   53  A    between atoms: _113  and  _116
REMARK   54  A    between atoms: _116  and  _117
REMARK   55  A    between atoms: _119  and  _121
REMARK   56  A    between atoms: _121  and  _122
REMARK   57  A    between atoms: _121  and  _124
REMARK   58  A    between atoms: _124  and  _125
REMARK   59  A    between atoms: _135  and  _137
REMARK   60  A    between atoms: _137  and  _138
REMARK   61  A    between atoms: _137  and  _140
REMARK   62  A    between atoms: _140  and  _141
REMARK   63  A    between atoms: _146  and  _148
REMARK   64  A    between atoms: _148  and  _149
REMARK   65  A    between atoms: _151  and  _153
REMARK   66  A    between atoms: _153  and  _154
REMARK   67  A    between atoms: _153  and  _156
REMARK   68  A    between atoms: _156  and  _157
REMARK   69  A    between atoms: _157  and  _158
REMARK   70  A    between atoms: _160  and  _162
REMARK   71  A    between atoms: _162  and  _163
REMARK   72  A    between atoms: _162  and  _165
REMARK   73  A    between atoms: _165  and  _166
REMARK   74  A    between atoms: _169  and  _171
REMARK   75  A    between atoms: _171  and  _172
REMARK   76  A    between atoms: _175  and  _177
REMARK   77  A    between atoms: _177  and  _178
REMARK   78  A    between atoms: _177  and  _180
REMARK   79  A    between atoms: _180  and  _181
REMARK   80  A    between atoms: _184  and  _186
REMARK   81  A    between atoms: _186  and  _187
REMARK   82  A    between atoms: _186  and  _189
REMARK   83  A    between atoms: _189  and  _190
REMARK   84  A    between atoms: _192  and  _194
REMARK   85  A    between atoms: _194  and  _195
REMARK   86  A    between atoms: _198  and  _200
REMARK   87  A    between atoms: _200  and  _201
REMARK   88  A    between atoms: _200  and  _203
REMARK   89  A    between atoms: _203  and  _205
REMARK   90  A    between atoms: _207  and  _209
REMARK   91  A    between atoms: _209  and  _210
REMARK   92  A    between atoms: _213  and  _215
REMARK   93  A    between atoms: _215  and  _216
REMARK   94  A    between atoms: _215  and  _218
REMARK   95  A    between atoms: _218  and  _219
REMARK   96  A    between atoms: _219  and  _220
REMARK   97  A    between atoms: _224  and  _225
REMARK   98  A    between atoms: _230  and  _232
REMARK   99  A    between atoms: _232  and  _233
REMARK  100  A    between atoms: _232  and  _235
REMARK  101  A    between atoms: _235  and  _236
REMARK  102  A    between atoms: _239  and  _241
REMARK  103  A    between atoms: _241  and  _242
REMARK  104  A    between atoms: _241  and  _244
REMARK  105  A    between atoms: _244  and  _245
REMARK  106  A    between atoms: _248  and  _250
REMARK  107  A    between atoms: _250  and  _251
REMARK  108  A    between atoms: _250  and  _253
REMARK  109  A    between atoms: _253  and  _254
REMARK  110  A    between atoms: _256  and  _258
REMARK  111  A    between atoms: _258  and  _259
REMARK  112  A    between atoms: _258  and  _261
REMARK  113  A    between atoms: _261  and  _262
REMARK  114  A    between atoms: _264  and  _266
REMARK  115  A    between atoms: _266  and  _267
REMARK  116  A    between atoms: _269  and  _271
REMARK  117  A    between atoms: _271  and  _272
REMARK  118  A    between atoms: _274  and  _276
REMARK  119  A    between atoms: _276  and  _277
REMARK  120  A    between atoms: _276  and  _279
REMARK  121  A    between atoms: _279  and  _280
REMARK  122  A    between atoms: _283  and  _285
REMARK  123  A    between atoms: _285  and  _286
REMARK  124  A    between atoms: _285  and  _288
REMARK  125  A    between atoms: _288  and  _289
REMARK  126  A    between atoms: _289  and  _290
REMARK  127  A    between atoms: _293  and  _295
REMARK  128  A    between atoms: _295  and  _296
REMARK  129  A    between atoms: _299  and  _301
REMARK  130  A    between atoms: _301  and  _302
REMARK  131  A    between atoms: _301  and  _304
REMARK  132  A    between atoms: _304  and  _305
REMARK  133  A    between atoms: _305  and  _306
REMARK  134  A    between atoms: _311  and  _313
REMARK  135  A    between atoms: _313  and  _314
REMARK  136  A    between atoms: _313  and  _316
REMARK  137  A    between atoms: _316  and  _317
REMARK  138  A    between atoms: _320  and  _322
REMARK  139  A    between atoms: _322  and  _323
REMARK  140  A    between atoms: _322  and  _325
REMARK  141  A    between atoms: _325  and  _326
REMARK  142  A    between atoms: _329  and  _331
REMARK  143  A    between atoms: _331  and  _332
REMARK  144  A    between atoms: _331  and  _334
REMARK  145  A    between atoms: _334  and  _335
REMARK  146  A    between atoms: _338  and  _340
REMARK  147  A    between atoms: _340  and  _341
REMARK  148  A    between atoms: _340  and  _343
REMARK  149  A    between atoms: _343  and  _344
REMARK  150  A    between atoms: _346  and  _348
REMARK  151  A    between atoms: _348  and  _349
REMARK  152  A    between atoms: _348  and  _351
REMARK  153  A    between atoms: _351  and  _352
REMARK  154  A    between atoms: _352  and  _353
REMARK  155  A    between atoms: _353  and  _354
REMARK  156  A    between atoms: _354  and  _355
REMARK  157  A    between atoms: _360  and  _361
REMARK  158  A    between atoms: _366  and  _368
REMARK  159  A    between atoms: _368  and  _369
REMARK  160  A    between atoms: _368  and  _371
REMARK  161  A    between atoms: _371  and  _372
REMARK  162  A    between atoms: _375  and  _377
REMARK  163  A    between atoms: _377  and  _378
REMARK  164  A    between atoms: _381  and  _383
REMARK  165  A    between atoms: _383  and  _384
REMARK  166  A    between atoms: _383  and  _386
REMARK  167  A    between atoms: _386  and  _387
REMARK  168  A    between atoms: _392  and  _394
REMARK  169  A    between atoms: _394  and  _395
REMARK  170  A    between atoms: _394  and  _397
REMARK  171  A    between atoms: _400  and  _402
REMARK  172  A    between atoms: _402  and  _403
REMARK  173  A    between atoms: _402  and  _405
REMARK  174  A    between atoms: _405  and  _406
REMARK  175  A    between atoms: _406  and  _407
REMARK  176  A    between atoms: _407  and  _408
REMARK  177  A    between atoms: _417  and  _419
REMARK  178  A    between atoms: _419  and  _420
REMARK  179  A    between atoms: _419  and  _422
REMARK  180  A    between atoms: _422  and  _423
REMARK  181  A    between atoms: _428  and  _430
REMARK  182  A    between atoms: _430  and  _431
REMARK  183  A    between atoms: _430  and  _433
REMARK  184  A    between atoms: _433  and  _434
REMARK  185  A    between atoms: _440  and  _442
REMARK  186  A    between atoms: _442  and  _443
REMARK  187  A    between atoms: _442  and  _445
REMARK  188  A    between atoms: _445  and  _446
REMARK  189  A    between atoms: _448  and  _450
REMARK  190  A    between atoms: _450  and  _451
REMARK  191  A    between atoms: _450  and  _453
REMARK  192  A    between atoms: _453  and  _454
REMARK  193  A    between atoms: _454  and  _455
REMARK  194  A    between atoms: _458  and  _460
REMARK  195  A    between atoms: _460  and  _461
REMARK  196  A    between atoms: _460  and  _463
REMARK  197  A    between atoms: _463  and  _464
REMARK  198  A    between atoms: _466  and  _468
REMARK  199  A    between atoms: _468  and  _469
REMARK  200  A    between atoms: _468  and  _471
REMARK  201  A    between atoms: _471  and  _472
REMARK  202  A    between atoms: _472  and  _473
REMARK  203  A    between atoms: _476  and  _478
REMARK  204  A    between atoms: _478  and  _479
REMARK  205  A    between atoms: _478  and  _481
REMARK  206  A    between atoms: _481  and  _482
REMARK  207  A    between atoms: _485  and  _487
REMARK  208  A    between atoms: _487  and  _488
REMARK  209  A    between atoms: _487  and  _490
REMARK  210  A    between atoms: _490  and  _491
REMARK  211  A    between atoms: _497  and  _499
REMARK  212  A    between atoms: _499  and  _500
REMARK  213  A    between atoms: _499  and  _502
REMARK  214  A    between atoms: _502  and  _503
REMARK  215  A    between atoms: _508  and  _509
REMARK  216  A    between atoms: _511  and  _513
REMARK  217  A    between atoms: _513  and  _514
REMARK  218  A    between atoms: _513  and  _516
REMARK  219  A    between atoms: _516  and  _517
REMARK  220  A    between atoms: _520  and  _522
REMARK  221  A    between atoms: _522  and  _523
REMARK  222  A    between atoms: _522  and  _525
REMARK  223  A    between atoms: _525  and  _526
REMARK  224  A    between atoms: _529  and  _531
REMARK  225  A    between atoms: _531  and  _532
REMARK  226  A    between atoms: _531  and  _534
REMARK  227  A    between atoms: _534  and  _535
REMARK  228  A    between atoms: _540  and  _542
REMARK  229  A    between atoms: _542  and  _543
REMARK  230  A    between atoms: _542  and  _545
REMARK                            x       y       z     vdW  Elec       q    Type
REMARK                         _______ _______ _______ _____ _____    ______ ____
ROOT
ATOM      1  C   LEU A   2      16.534  47.824   8.440  0.00  0.00    +0.241 C 
ATOM      2  N   SER A   3      15.774  47.332   9.429  0.00  0.00    -0.295 N 
ATOM      3  H   SER A   3      14.774  47.605   9.510  0.00  0.00    +0.150 HD
ATOM      4  O   LEU A   2      17.708  47.490   8.236  0.00  0.00    -0.273 OA
ENDROOT
BRANCH   2   5
ATOM      5  CA  SER A   3      16.359  46.421  10.377  0.00  0.00    +0.178 C 
BRANCH   5   6
ATOM      6  C   SER A   3      15.371  45.740  11.308  0.00  0.00    +0.243 C 
ATOM      7  N   LYS A   4      14.912  46.456  12.356  0.00  0.00    -0.298 N 
ATOM      8  H   LYS A   4      15.163  47.463  12.431  0.00  0.00    +0.150 HD
ATOM      9  O   SER A   3      14.993  44.554  11.065  0.00  0.00    -0.273 OA
BRANCH   7  10
ATOM     10  CA  LYS A   4      14.049  45.836  13.416  0.00  0.00    +0.137 C 
BRANCH  10  11
ATOM     11  C   LYS A   4      12.931  44.918  12.976  0.00  0.00    +0.227 C 
ATOM     12  O   LYS A   4      12.928  43.719  13.260  0.00  0.00    -0.286 OA
ENDBRANCH  10  11
BRANCH  10  13
ATOM     13  CB  LYS A   4      13.489  46.875  14.346  0.00  0.00    +0.028 C 
BRANCH  13  14
ATOM     14  CG  LYS A   4      14.483  47.862  14.851  0.00  0.00    -0.000 C 
BRANCH  14  15
ATOM     15  CD  LYS A   4      13.705  49.015  15.491  0.00  0.00    -0.024 C 
BRANCH  15  16
ATOM     16  CE  LYS A   4      14.471  49.646  16.606  0.00  0.00    -0.086 C 
BRANCH  16  17
ATOM     17  NZ  LYS A   4      14.261  48.879  17.836  0.00  0.00    +0.380 N 
ATOM     18  HZ1 LYS A   4      14.795  49.319  18.613  0.00  0.00    -0.089 HD
ATOM     19  HZ2 LYS A   4      13.248  48.872  18.070  0.00  0.00    -0.089 HD
ATOM     20  HZ3 LYS A   4      14.592  47.903  17.695  0.00  0.00    -0.089 HD
ENDBRANCH  16  17
ENDBRANCH  15  16
ENDBRANCH  14  15
ENDBRANCH  13  14
ENDBRANCH  10  13
ENDBRANCH   7  10
ENDBRANCH   5   6
BRANCH   5  21
ATOM     21  CB  SER A   3      17.463  47.126  11.181  0.00  0.00    +0.166 C 
BRANCH  21  22
ATOM     22  OG  SER A   3      16.981  48.388  11.695  0.00  0.00    -0.380 OA
ATOM     23  H   SER A   3      16.709  48.968  10.940  0.00  0.00    +0.211 HD
ENDBRANCH  21  22
ENDBRANCH   5  21
ENDBRANCH   2   5
BRANCH   1  24
ATOM     24  CA  LEU A   2      15.845  48.703   7.466  0.00  0.00    +0.149 C 
BRANCH  24  27
ATOM     25  C   THR A   1      16.700  50.786   6.484  0.00  0.00    +0.241 C 
ATOM     26  O   THR A   1      15.710  51.482   6.825  0.00  0.00    -0.274 OA
ATOM     27  N   LEU A   2      16.845  49.487   6.761  0.00  0.00    -0.297 N 
ATOM     28  H   LEU A   2      17.719  49.012   6.456  0.00  0.00    +0.150 HD
BRANCH  25  29
ATOM     29  CA  THR A   1      17.808  51.410   5.704  0.00  0.00    +0.172 C 
BRANCH  29  30
ATOM     30  CB  THR A   1      18.881  51.947   6.666  0.00  0.00    +0.135 C 
ATOM     31  CG2 THR A   1      19.964  52.706   5.875  0.00  0.00    +0.034 C 
BRANCH  30  32
ATOM     32  OG1 THR A   1      18.293  52.818   7.676  0.00  0.00    -0.383 OA
ATOM     33  HG1 THR A   1      19.005  53.148   8.280  0.00  0.00    +0.210 HD
ENDBRANCH  30  32
ENDBRANCH  29  30
BRANCH  29  34
ATOM     34  N   THR A   1      17.259  52.440   4.790  0.00  0.00    -0.236 NA
ATOM     35  H   THR A   1      16.709  53.237   5.170  0.00  0.00    +0.142 HD
ENDBRANCH  29  34
ENDBRANCH  25  29
ENDBRANCH  24  27
BRANCH  24  36
ATOM     36  CB  LEU A   2      15.190  47.737   6.454  0.00  0.00    +0.029 C 
BRANCH  36  37
ATOM     37  CG  LEU A   2      14.549  48.460   5.266  0.00  0.00    +0.002 C 
ATOM     38  CD2 LEU A   2      13.269  49.162   5.682  0.00  0.00    +0.000 C 
ATOM     39  CD1 LEU A   2      14.217  47.492   4.256  0.00  0.00    +0.000 C 
ENDBRANCH  36  37
ENDBRANCH  24  36
ENDBRANCH   1  24
TORSDOF 19
REMARK  Name = ../refined-set-2016/1m0o/1m0o_pocket.pdb
REMARK  230 active torsions:
REMARK  status: ('A' for Active; 'I' for Inactive)
REMARK    1  A    between atoms: _1  and  _3
REMARK    2  A    between atoms: _3  and  _4
REMARK    3  A    between atoms: _3  and  _6
REMARK    4  A    between atoms: _6  and  _7
REMARK    5  A    between atoms: _10  and  _12
REMARK    6  A    between atoms: _12  and  _13
REMARK    7  A    between atoms: _15  and  _17
REMARK    8  A    between atoms: _17  and  _18
REMARK    9  A    between atoms: _17  and  _20
REMARK   10  A    between atoms: _20  and  _21
REMARK   11  A    between atoms: _21  and  _22
REMARK   12  A    between atoms: _27  and  _29
REMARK   13  A    between atoms: _29  and  _30
REMARK   14  A    between atoms: _29  and  _32
REMARK   15  A    between atoms: _32  and  _33
REMARK   16  A    between atoms: _33  and  _34
REMARK   17  A    between atoms: _36  and  _38
REMARK   18  A    between atoms: _38  and  _39
REMARK   19  A    between atoms: _38  and  _41
REMARK   20  A    between atoms: _41  and  _42
REMARK   21  A    between atoms: _44  and  _46
REMARK   22  A    between atoms: _46  and  _47
REMARK   23  A    between atoms: _46  and  _49
REMARK   24  A    between atoms: _49  and  _50
REMARK   25  A    between atoms: _52  and  _54
REMARK   26  A    between atoms: _54  and  _55
REMARK   27  A    between atoms: _54  and  _57
REMARK   28  A    between atoms: _57  and  _58
REMARK   29  A    between atoms: _61  and  _63
REMARK   30  A    between atoms: _63  and  _64
REMARK   31  A    between atoms: _66  and  _68
REMARK   32  A    between atoms: _68  and  _69
REMARK   33  A    between atoms: _72  and  _74
REMARK   34  A    between atoms: _74  and  _75
REMARK   35  A    between atoms: _74  and  _77
REMARK   36  A    between atoms: _77  and  _78
REMARK   37  A    between atoms: _78  and  _79
REMARK   38  A    between atoms: _82  and  _84
REMARK   39  A    between atoms: _84  and  _85
REMARK   40  A    between atoms: _84  and  _87
REMARK   41  A    between atoms: _87  and  _88
REMARK   42  A    between atoms: _90  and  _92
REMARK   43  A    between atoms: _92  and  _93
REMARK   44  A    between atoms: _92  and  _95
REMARK   45  A    between atoms: _95  and  _96
REMARK   46  A    between atoms: _101  and  _103
REMARK   47  A    between atoms: _103  and  _104
REMARK   48  A    between atoms: _103  and  _106
REMARK   49  A    between atoms: _106  and  _107
REMARK   50  A    between atoms: _107  and  _108
REMARK   51  A    between atoms: _111  and  _113
REMARK   52  A    between atoms: _113  and  _114
REMARK   53  A    between atoms: _113  and  _116
REMARK   54  A    between atoms: _116  and  _117
REMARK   55  A    between atoms: _119  and  _121
REMARK   56  A    between atoms: _121  and  _122
REMARK   57  A    between atoms: _121  and  _124
REMARK   58  A    between atoms: _124  and  _125
REMARK   59  A    between atoms: _135  and  _137
REMARK   60  A    between atoms: _137  and  _138
REMARK   61  A    between atoms: _137  and  _140
REMARK   62  A    between atoms: _140  and  _141
REMARK   63  A    between atoms: _146  and  _148
REMARK   64  A    between atoms: _148  and  _149
REMARK   65  A    between atoms: _151  and  _153
REMARK   66  A    between atoms: _153  and  _154
REMARK   67  A    between atoms: _153  and  _156
REMARK   68  A    between atoms: _156  and  _157
REMARK   69  A    between atoms: _157  and  _158
REMARK   70  A    between atoms: _160  and  _162
REMARK   71  A    between atoms: _162  and  _163
REMARK   72  A    between atoms: _162  and  _165
REMARK   73  A    between atoms: _165  and  _166
REMARK   74  A    between atoms: _169  and  _171
REMARK   75  A    between atoms: _171  and  _172
REMARK   76  A    between atoms: _175  and  _177
REMARK   77  A    between atoms: _177  and  _178
REMARK   78  A    between atoms: _177  and  _180
REMARK   79  A    between atoms: _180  and  _181
REMARK   80  A    between atoms: _184  and  _186
REMARK   81  A    between atoms: _186  and  _187
REMARK   82  A    between atoms: _186  and  _189
REMARK   83  A    between atoms: _189  and  _190
REMARK   84  A    between atoms: _192  and  _194
REMARK   85  A    between atoms: _194  and  _195
REMARK   86  A    between atoms: _198  and  _200
REMARK   87  A    between atoms: _200  and  _201
REMARK   88  A    between atoms: _200  and  _203
REMARK   89  A    between atoms: _203  and  _205
REMARK   90  A    between atoms: _207  and  _209
REMARK   91  A    between atoms: _209  and  _210
REMARK   92  A    between atoms: _213  and  _215
REMARK   93  A    between atoms: _215  and  _216
REMARK   94  A    between atoms: _215  and  _218
REMARK   95  A    between atoms: _218  and  _219
REMARK   96  A    between atoms: _219  and  _220
REMARK   97  A    between atoms: _224  and  _225
REMARK   98  A    between atoms: _230  and  _232
REMARK   99  A    between atoms: _232  and  _233
REMARK  100  A    between atoms: _232  and  _235
REMARK  101  A    between atoms: _235  and  _236
REMARK  102  A    between atoms: _239  and  _241
REMARK  103  A    between atoms: _241  and  _242
REMARK  104  A    between atoms: _241  and  _244
REMARK  105  A    between atoms: _244  and  _245
REMARK  106  A    between atoms: _248  and  _250
REMARK  107  A    between atoms: _250  and  _251
REMARK  108  A    between atoms: _250  and  _253
REMARK  109  A    between atoms: _253  and  _254
REMARK  110  A    between atoms: _256  and  _258
REMARK  111  A    between atoms: _258  and  _259
REMARK  112  A    between atoms: _258  and  _261
REMARK  113  A    between atoms: _261  and  _262
REMARK  114  A    between atoms: _264  and  _266
REMARK  115  A    between atoms: _266  and  _267
REMARK  116  A    between atoms: _269  and  _271
REMARK  117  A    between atoms: _271  and  _272
REMARK  118  A    between atoms: _274  and  _276
REMARK  119  A    between atoms: _276  and  _277
REMARK  120  A    between atoms: _276  and  _279
REMARK  121  A    between atoms: _279  and  _280
REMARK  122  A    between atoms: _283  and  _285
REMARK  123  A    between atoms: _285  and  _286
REMARK  124  A    between atoms: _285  and  _288
REMARK  125  A    between atoms: _288  and  _289
REMARK  126  A    between atoms: _289  and  _290
REMARK  127  A    between atoms: _293  and  _295
REMARK  128  A    between atoms: _295  and  _296
REMARK  129  A    between atoms: _299  and  _301
REMARK  130  A    between atoms: _301  and  _302
REMARK  131  A    between atoms: _301  and  _304
REMARK  132  A    between atoms: _304  and  _305
REMARK  133  A    between atoms: _305  and  _306
REMARK  134  A    between atoms: _311  and  _313
REMARK  135  A    between atoms: _313  and  _314
REMARK  136  A    between atoms: _313  and  _316
REMARK  137  A    between atoms: _316  and  _317
REMARK  138  A    between atoms: _320  and  _322
REMARK  139  A    between atoms: _322  and  _323
REMARK  140  A    between atoms: _322  and  _325
REMARK  141  A    between atoms: _325  and  _326
REMARK  142  A    between atoms: _329  and  _331
REMARK  143  A    between atoms: _331  and  _332
REMARK  144  A    between atoms: _331  and  _334
REMARK  145  A    between atoms: _334  and  _335
REMARK  146  A    between atoms: _338  and  _340
REMARK  147  A    between atoms: _340  and  _341
REMARK  148  A    between atoms: _340  and  _343
REMARK  149  A    between atoms: _343  and  _344
REMARK  150  A    between atoms: _346  and  _348
REMARK  151  A    between atoms: _348  and  _349
REMARK  152  A    between atoms: _348  and  _351
REMARK  153  A    between atoms: _351  and  _352
REMARK  154  A    between atoms: _352  and  _353
REMARK  155  A    between atoms: _353  and  _354
REMARK  156  A    between atoms: _354  and  _355
REMARK  157  A    between atoms: _360  and  _361
REMARK  158  A    between atoms: _366  and  _368
REMARK  159  A    between atoms: _368  and  _369
REMARK  160  A    between atoms: _368  and  _371
REMARK  161  A    between atoms: _371  and  _372
REMARK  162  A    between atoms: _375  and  _377
REMARK  163  A    between atoms: _377  and  _378
REMARK  164  A    between atoms: _381  and  _383
REMARK  165  A    between atoms: _383  and  _384
REMARK  166  A    between atoms: _383  and  _386
REMARK  167  A    between atoms: _386  and  _387
REMARK  168  A    between atoms: _392  and  _394
REMARK  169  A    between atoms: _394  and  _395
REMARK  170  A    between atoms: _394  and  _397
REMARK  171  A    between atoms: _400  and  _402
REMARK  172  A    between atoms: _402  and  _403
REMARK  173  A    between atoms: _402  and  _405
REMARK  174  A    between atoms: _405  and  _406
REMARK  175  A    between atoms: _406  and  _407
REMARK  176  A    between atoms: _407  and  _408
REMARK  177  A    between atoms: _417  and  _419
REMARK  178  A    between atoms: _419  and  _420
REMARK  179  A    between atoms: _419  and  _422
REMARK  180  A    between atoms: _422  and  _423
REMARK  181  A    between atoms: _428  and  _430
REMARK  182  A    between atoms: _430  and  _431
REMARK  183  A    between atoms: _430  and  _433
REMARK  184  A    between atoms: _433  and  _434
REMARK  185  A    between atoms: _440  and  _442
REMARK  186  A    between atoms: _442  and  _443
REMARK  187  A    between atoms: _442  and  _445
REMARK  188  A    between atoms: _445  and  _446
REMARK  189  A    between atoms: _448  and  _450
REMARK  190  A    between atoms: _450  and  _451
REMARK  191  A    between atoms: _450  and  _453
REMARK  192  A    between atoms: _453  and  _454
REMARK  193  A    between atoms: _454  and  _455
REMARK  194  A    between atoms: _458  and  _460
REMARK  195  A    between atoms: _460  and  _461
REMARK  196  A    between atoms: _460  and  _463
REMARK  197  A    between atoms: _463  and  _464
REMARK  198  A    between atoms: _466  and  _468
REMARK  199  A    between atoms: _468  and  _469
REMARK  200  A    between atoms: _468  and  _471
REMARK  201  A    between atoms: _471  and  _472
REMARK  202  A    between atoms: _472  and  _473
REMARK  203  A    between atoms: _476  and  _478
REMARK  204  A    between atoms: _478  and  _479
REMARK  205  A    between atoms: _478  and  _481
REMARK  206  A    between atoms: _481  and  _482
REMARK  207  A    between atoms: _485  and  _487
REMARK  208  A    between atoms: _487  and  _488
REMARK  209  A    between atoms: _487  and  _490
REMARK  210  A    between atoms: _490  and  _491
REMARK  211  A    between atoms: _497  and  _499
REMARK  212  A    between atoms: _499  and  _500
REMARK  213  A    between atoms: _499  and  _502
REMARK  214  A    between atoms: _502  and  _503
REMARK  215  A    between atoms: _508  and  _509
REMARK  216  A    between atoms: _511  and  _513
REMARK  217  A    between atoms: _513  and  _514
REMARK  218  A    between atoms: _513  and  _516
REMARK  219  A    between atoms: _516  and  _517
REMARK  220  A    between atoms: _520  and  _522
REMARK  221  A    between atoms: _522  and  _523
REMARK  222  A    between atoms: _522  and  _525
REMARK  223  A    between atoms: _525  and  _526
REMARK  224  A    between atoms: _529  and  _531
REMARK  225  A    between atoms: _531  and  _532
REMARK  226  A    between atoms: _531  and  _534
REMARK  227  A    between atoms: _534  and  _535
REMARK  228  A    between atoms: _540  and  _542
REMARK  229  A    between atoms: _542  and  _543
REMARK  230  A    between atoms: _542  and  _545
REMARK                            x       y       z     vdW  Elec       q    Type
REMARK                         _______ _______ _______ _____ _____    ______ ____
ROOT
ATOM      1  CA  LEU A   2      18.848  41.109  10.069  0.00  0.00    +0.149 C 
ENDROOT
BRANCH   1   4
ATOM      2  C   PRO A   1      19.403  40.163  12.204  0.00  0.00    +0.239 C 
ATOM      3  O   PRO A   1      20.246  39.395  11.710  0.00  0.00    -0.274 OA
ATOM      4  N   LEU A   2      18.662  40.979  11.477  0.00  0.00    -0.297 N 
ATOM      5  H   LEU A   2      17.923  41.542  11.944  0.00  0.00    +0.150 HD
BRANCH   2  10
ATOM      6  N   PRO A   1      18.308  39.214  14.150  0.00  0.00    -0.210 NA
ATOM      7  CD  PRO A   1      19.027  38.152  14.844  0.00  0.00    +0.089 C 
ATOM      8  CG  PRO A   1      20.208  38.860  15.380  0.00  0.00    +0.021 C 
ATOM      9  CB  PRO A   1      20.473  40.056  14.508  0.00  0.00    +0.028 C 
ATOM     10  CA  PRO A   1      19.170  40.258  13.696  0.00  0.00    +0.149 C 
ENDBRANCH   2  10
ENDBRANCH   1   4
BRANCH   1  11
ATOM     11  C   LEU A   2      18.635  42.573   9.807  0.00  0.00    +0.241 C 
ATOM     12  O   LEU A   2      17.777  43.225  10.459  0.00  0.00    -0.273 OA
ATOM     13  N   ALA A   3      19.388  43.123   8.879  0.00  0.00    -0.298 N 
ATOM     14  H   ALA A   3      20.123  42.573   8.389  0.00  0.00    +0.150 HD
BRANCH  13  15
ATOM     15  CA  ALA A   3      19.165  44.498   8.565  0.00  0.00    +0.137 C 
ATOM     16  CB  ALA A   3      19.975  45.357   9.481  0.00  0.00    +0.030 C 
BRANCH  15  17
ATOM     17  C   ALA A   3      19.544  44.698   7.097  0.00  0.00    +0.227 C 
ATOM     18  O   ALA A   3      20.087  43.808   6.461  0.00  0.00    -0.286 OA
ENDBRANCH  15  17
ENDBRANCH  13  15
ENDBRANCH   1  11
BRANCH   1  19
ATOM     19  CB  LEU A   2      17.798  40.285   9.333  0.00  0.00    +0.029 C 
BRANCH  19  20
ATOM     20  CG  LEU A   2      17.685  40.466   7.797  0.00  0.00    +0.002 C 
ATOM     21  CD2 LEU A   2      16.425  39.740   7.175  0.00  0.00    +0.000 C 
ATOM     22  CD1 LEU A   2      18.957  40.095   7.025  0.00  0.00    +0.000 C 
ENDBRANCH  19  20
ENDBRANCH   1  19
TORSDOF 7
REMARK  Name = ../refined-set-2016/1m0o/1m0o_pocket.pdb
REMARK  230 active torsions:
REMARK  status: ('A' for Active; 'I' for Inactive)
REMARK    1  A    between atoms: _1  and  _3
REMARK    2  A    between atoms: _3  and  _4
REMARK    3  A    between atoms: _3  and  _6
REMARK    4  A    between atoms: _6  and  _7
REMARK    5  A    between atoms: _10  and  _12
REMARK    6  A    between atoms: _12  and  _13
REMARK    7  A    between atoms: _15  and  _17
REMARK    8  A    between atoms: _17  and  _18
REMARK    9  A    between atoms: _17  and  _20
REMARK   10  A    between atoms: _20  and  _21
REMARK   11  A    between atoms: _21  and  _22
REMARK   12  A    between atoms: _27  and  _29
REMARK   13  A    between atoms: _29  and  _30
REMARK   14  A    between atoms: _29  and  _32
REMARK   15  A    between atoms: _32  and  _33
REMARK   16  A    between atoms: _33  and  _34
REMARK   17  A    between atoms: _36  and  _38
REMARK   18  A    between atoms: _38  and  _39
REMARK   19  A    between atoms: _38  and  _41
REMARK   20  A    between atoms: _41  and  _42
REMARK   21  A    between atoms: _44  and  _46
REMARK   22  A    between atoms: _46  and  _47
REMARK   23  A    between atoms: _46  and  _49
REMARK   24  A    between atoms: _49  and  _50
REMARK   25  A    between atoms: _52  and  _54
REMARK   26  A    between atoms: _54  and  _55
REMARK   27  A    between atoms: _54  and  _57
REMARK   28  A    between atoms: _57  and  _58
REMARK   29  A    between atoms: _61  and  _63
REMARK   30  A    between atoms: _63  and  _64
REMARK   31  A    between atoms: _66  and  _68
REMARK   32  A    between atoms: _68  and  _69
REMARK   33  A    between atoms: _72  and  _74
REMARK   34  A    between atoms: _74  and  _75
REMARK   35  A    between atoms: _74  and  _77
REMARK   36  A    between atoms: _77  and  _78
REMARK   37  A    between atoms: _78  and  _79
REMARK   38  A    between atoms: _82  and  _84
REMARK   39  A    between atoms: _84  and  _85
REMARK   40  A    between atoms: _84  and  _87
REMARK   41  A    between atoms: _87  and  _88
REMARK   42  A    between atoms: _90  and  _92
REMARK   43  A    between atoms: _92  and  _93
REMARK   44  A    between atoms: _92  and  _95
REMARK   45  A    between atoms: _95  and  _96
REMARK   46  A    between atoms: _101  and  _103
REMARK   47  A    between atoms: _103  and  _104
REMARK   48  A    between atoms: _103  and  _106
REMARK   49  A    between atoms: _106  and  _107
REMARK   50  A    between atoms: _107  and  _108
REMARK   51  A    between atoms: _111  and  _113
REMARK   52  A    between atoms: _113  and  _114
REMARK   53  A    between atoms: _113  and  _116
REMARK   54  A    between atoms: _116  and  _117
REMARK   55  A    between atoms: _119  and  _121
REMARK   56  A    between atoms: _121  and  _122
REMARK   57  A    between atoms: _121  and  _124
REMARK   58  A    between atoms: _124  and  _125
REMARK   59  A    between atoms: _135  and  _137
REMARK   60  A    between atoms: _137  and  _138
REMARK   61  A    between atoms: _137  and  _140
REMARK   62  A    between atoms: _140  and  _141
REMARK   63  A    between atoms: _146  and  _148
REMARK   64  A    between atoms: _148  and  _149
REMARK   65  A    between atoms: _151  and  _153
REMARK   66  A    between atoms: _153  and  _154
REMARK   67  A    between atoms: _153  and  _156
REMARK   68  A    between atoms: _156  and  _157
REMARK   69  A    between atoms: _157  and  _158
REMARK   70  A    between atoms: _160  and  _162
REMARK   71  A    between atoms: _162  and  _163
REMARK   72  A    between atoms: _162  and  _165
REMARK   73  A    between atoms: _165  and  _166
REMARK   74  A    between atoms: _169  and  _171
REMARK   75  A    between atoms: _171  and  _172
REMARK   76  A    between atoms: _175  and  _177
REMARK   77  A    between atoms: _177  and  _178
REMARK   78  A    between atoms: _177  and  _180
REMARK   79  A    between atoms: _180  and  _181
REMARK   80  A    between atoms: _184  and  _186
REMARK   81  A    between atoms: _186  and  _187
REMARK   82  A    between atoms: _186  and  _189
REMARK   83  A    between atoms: _189  and  _190
REMARK   84  A    between atoms: _192  and  _194
REMARK   85  A    between atoms: _194  and  _195
REMARK   86  A    between atoms: _198  and  _200
REMARK   87  A    between atoms: _200  and  _201
REMARK   88  A    between atoms: _200  and  _203
REMARK   89  A    between atoms: _203  and  _205
REMARK   90  A    between atoms: _207  and  _209
REMARK   91  A    between atoms: _209  and  _210
REMARK   92  A    between atoms: _213  and  _215
REMARK   93  A    between atoms: _215  and  _216
REMARK   94  A    between atoms: _215  and  _218
REMARK   95  A    between atoms: _218  and  _219
REMARK   96  A    between atoms: _219  and  _220
REMARK   97  A    between atoms: _224  and  _225
REMARK   98  A    between atoms: _230  and  _232
REMARK   99  A    between atoms: _232  and  _233
REMARK  100  A    between atoms: _232  and  _235
REMARK  101  A    between atoms: _235  and  _236
REMARK  102  A    between atoms: _239  and  _241
REMARK  103  A    between atoms: _241  and  _242
REMARK  104  A    between atoms: _241  and  _244
REMARK  105  A    between atoms: _244  and  _245
REMARK  106  A    between atoms: _248  and  _250
REMARK  107  A    between atoms: _250  and  _251
REMARK  108  A    between atoms: _250  and  _253
REMARK  109  A    between atoms: _253  and  _254
REMARK  110  A    between atoms: _256  and  _258
REMARK  111  A    between atoms: _258  and  _259
REMARK  112  A    between atoms: _258  and  _261
REMARK  113  A    between atoms: _261  and  _262
REMARK  114  A    between atoms: _264  and  _266
REMARK  115  A    between atoms: _266  and  _267
REMARK  116  A    between atoms: _269  and  _271
REMARK  117  A    between atoms: _271  and  _272
REMARK  118  A    between atoms: _274  and  _276
REMARK  119  A    between atoms: _276  and  _277
REMARK  120  A    between atoms: _276  and  _279
REMARK  121  A    between atoms: _279  and  _280
REMARK  122  A    between atoms: _283  and  _285
REMARK  123  A    between atoms: _285  and  _286
REMARK  124  A    between atoms: _285  and  _288
REMARK  125  A    between atoms: _288  and  _289
REMARK  126  A    between atoms: _289  and  _290
REMARK  127  A    between atoms: _293  and  _295
REMARK  128  A    between atoms: _295  and  _296
REMARK  129  A    between atoms: _299  and  _301
REMARK  130  A    between atoms: _301  and  _302
REMARK  131  A    between atoms: _301  and  _304
REMARK  132  A    between atoms: _304  and  _305
REMARK  133  A    between atoms: _305  and  _306
REMARK  134  A    between atoms: _311  and  _313
REMARK  135  A    between atoms: _313  and  _314
REMARK  136  A    between atoms: _313  and  _316
REMARK  137  A    between atoms: _316  and  _317
REMARK  138  A    between atoms: _320  and  _322
REMARK  139  A    between atoms: _322  and  _323
REMARK  140  A    between atoms: _322  and  _325
REMARK  141  A    between atoms: _325  and  _326
REMARK  142  A    between atoms: _329  and  _331
REMARK  143  A    between atoms: _331  and  _332
REMARK  144  A    between atoms: _331  and  _334
REMARK  145  A    between atoms: _334  and  _335
REMARK  146  A    between atoms: _338  and  _340
REMARK  147  A    between atoms: _340  and  _341
REMARK  148  A    between atoms: _340  and  _343
REMARK  149  A    between atoms: _343  and  _344
REMARK  150  A    between atoms: _346  and  _348
REMARK  151  A    between atoms: _348  and  _349
REMARK  152  A    between atoms: _348  and  _351
REMARK  153  A    between atoms: _351  and  _352
REMARK  154  A    between atoms: _352  and  _353
REMARK  155  A    between atoms: _353  and  _354
REMARK  156  A    between atoms: _354  and  _355
REMARK  157  A    between atoms: _360  and  _361
REMARK  158  A    between atoms: _366  and  _368
REMARK  159  A    between atoms: _368  and  _369
REMARK  160  A    between atoms: _368  and  _371
REMARK  161  A    between atoms: _371  and  _372
REMARK  162  A    between atoms: _375  and  _377
REMARK  163  A    between atoms: _377  and  _378
REMARK  164  A    between atoms: _381  and  _383
REMARK  165  A    between atoms: _383  and  _384
REMARK  166  A    between atoms: _383  and  _386
REMARK  167  A    between atoms: _386  and  _387
REMARK  168  A    between atoms: _392  and  _394
REMARK  169  A    between atoms: _394  and  _395
REMARK  170  A    between atoms: _394  and  _397
REMARK  171  A    between atoms: _400  and  _402
REMARK  172  A    between atoms: _402  and  _403
REMARK  173  A    between atoms: _402  and  _405
REMARK  174  A    between atoms: _405  and  _406
REMARK  175  A    between atoms: _406  and  _407
REMARK  176  A    between atoms: _407  and  _408
REMARK  177  A    between atoms: _417  and  _419
REMARK  178  A    between atoms: _419  and  _420
REMARK  179  A    between atoms: _419  and  _422
REMARK  180  A    between atoms: _422  and  _423
REMARK  181  A    between atoms: _428  and  _430
REMARK  182  A    between atoms: _430  and  _431
REMARK  183  A    between atoms: _430  and  _433
REMARK  184  A    between atoms: _433  and  _434
REMARK  185  A    between atoms: _440  and  _442
REMARK  186  A    between atoms: _442  and  _443
REMARK  187  A    between atoms: _442  and  _445
REMARK  188  A    between atoms: _445  and  _446
REMARK  189  A    between atoms: _448  and  _450
REMARK  190  A    between atoms: _450  and  _451
REMARK  191  A    between atoms: _450  and  _453
REMARK  192  A    between atoms: _453  and  _454
REMARK  193  A    between atoms: _454  and  _455
REMARK  194  A    between atoms: _458  and  _460
REMARK  195  A    between atoms: _460  and  _461
REMARK  196  A    between atoms: _460  and  _463
REMARK  197  A    between atoms: _463  and  _464
REMARK  198  A    between atoms: _466  and  _468
REMARK  199  A    between atoms: _468  and  _469
REMARK  200  A    between atoms: _468  and  _471
REMARK  201  A    between atoms: _471  and  _472
REMARK  202  A    between atoms: _472  and  _473
REMARK  203  A    between atoms: _476  and  _478
REMARK  204  A    between atoms: _478  and  _479
REMARK  205  A    between atoms: _478  and  _481
REMARK  206  A    between atoms: _481  and  _482
REMARK  207  A    between atoms: _485  and  _487
REMARK  208  A    between atoms: _487  and  _488
REMARK  209  A    between atoms: _487  and  _490
REMARK  210  A    between atoms: _490  and  _491
REMARK  211  A    between atoms: _497  and  _499
REMARK  212  A    between atoms: _499  and  _500
REMARK  213  A    between atoms: _499  and  _502
REMARK  214  A    between atoms: _502  and  _503
REMARK  215  A    between atoms: _508  and  _509
REMARK  216  A    between atoms: _511  and  _513
REMARK  217  A    between atoms: _513  and  _514
REMARK  218  A    between atoms: _513  and  _516
REMARK  219  A    between atoms: _516  and  _517
REMARK  220  A    between atoms: _520  and  _522
REMARK  221  A    between atoms: _522  and  _523
REMARK  222  A    between atoms: _522  and  _525
REMARK  223  A    between atoms: _525  and  _526
REMARK  224  A    between atoms: _529  and  _531
REMARK  225  A    between atoms: _531  and  _532
REMARK  226  A    between atoms: _531  and  _534
REMARK  227  A    between atoms: _534  and  _535
REMARK  228  A    between atoms: _540  and  _542
REMARK  229  A    between atoms: _542  and  _543
REMARK  230  A    between atoms: _542  and  _545
REMARK                            x       y       z     vdW  Elec       q    Type
REMARK                         _______ _______ _______ _____ _____    ______ ____
ROOT
ATOM      1  CB  ASN A   1       8.475  51.503  26.107  0.00  0.00    +0.110 C 
ENDROOT
BRANCH   1   2
ATOM      2  CG  ASN A   1       9.820  52.217  25.992  0.00  0.00    +0.221 C 
ATOM      3  ND2 ASN A   1      10.775  51.828  26.807  0.00  0.00    -0.329 N 
ATOM      4 HD21 ASN A   1      10.632  50.998  27.417  0.00  0.00    +0.145 HD
ATOM      5 HD22 ASN A   1      11.674  52.351  26.842  0.00  0.00    +0.145 HD
ATOM      6  OD1 ASN A   1       9.941  53.159  25.279  0.00  0.00    -0.275 OA
ENDBRANCH   1   2
BRANCH   1   7
ATOM      7  CA  ASN A   1       7.622  52.056  27.288  0.00  0.00    +0.142 C 
BRANCH   7   8
ATOM      8  N   ASN A   1       6.348  51.388  27.367  0.00  0.00    -0.239 NA
ATOM      9  H   ASN A   1       5.530  51.787  26.864  0.00  0.00    +0.142 HD
ENDBRANCH   7   8
BRANCH   7  10
ATOM     10  C   ASN A   1       7.419  53.557  27.176  0.00  0.00    +0.225 C 
ATOM     11  O   ASN A   1       6.565  54.070  26.386  0.00  0.00    -0.287 OA
ENDBRANCH   7  10
ENDBRANCH   1   7
TORSDOF 4
REMARK  Name = ../refined-set-2016/1m0o/1m0o_pocket.pdb
REMARK  230 active torsions:
REMARK  status: ('A' for Active; 'I' for Inactive)
REMARK    1  A    between atoms: _1  and  _3
REMARK    2  A    between atoms: _3  and  _4
REMARK    3  A    between atoms: _3  and  _6
REMARK    4  A    between atoms: _6  and  _7
REMARK    5  A    between atoms: _10  and  _12
REMARK    6  A    between atoms: _12  and  _13
REMARK    7  A    between atoms: _15  and  _17
REMARK    8  A    between atoms: _17  and  _18
REMARK    9  A    between atoms: _17  and  _20
REMARK   10  A    between atoms: _20  and  _21
REMARK   11  A    between atoms: _21  and  _22
REMARK   12  A    between atoms: _27  and  _29
REMARK   13  A    between atoms: _29  and  _30
REMARK   14  A    between atoms: _29  and  _32
REMARK   15  A    between atoms: _32  and  _33
REMARK   16  A    between atoms: _33  and  _34
REMARK   17  A    between atoms: _36  and  _38
REMARK   18  A    between atoms: _38  and  _39
REMARK   19  A    between atoms: _38  and  _41
REMARK   20  A    between atoms: _41  and  _42
REMARK   21  A    between atoms: _44  and  _46
REMARK   22  A    between atoms: _46  and  _47
REMARK   23  A    between atoms: _46  and  _49
REMARK   24  A    between atoms: _49  and  _50
REMARK   25  A    between atoms: _52  and  _54
REMARK   26  A    between atoms: _54  and  _55
REMARK   27  A    between atoms: _54  and  _57
REMARK   28  A    between atoms: _57  and  _58
REMARK   29  A    between atoms: _61  and  _63
REMARK   30  A    between atoms: _63  and  _64
REMARK   31  A    between atoms: _66  and  _68
REMARK   32  A    between atoms: _68  and  _69
REMARK   33  A    between atoms: _72  and  _74
REMARK   34  A    between atoms: _74  and  _75
REMARK   35  A    between atoms: _74  and  _77
REMARK   36  A    between atoms: _77  and  _78
REMARK   37  A    between atoms: _78  and  _79
REMARK   38  A    between atoms: _82  and  _84
REMARK   39  A    between atoms: _84  and  _85
REMARK   40  A    between atoms: _84  and  _87
REMARK   41  A    between atoms: _87  and  _88
REMARK   42  A    between atoms: _90  and  _92
REMARK   43  A    between atoms: _92  and  _93
REMARK   44  A    between atoms: _92  and  _95
REMARK   45  A    between atoms: _95  and  _96
REMARK   46  A    between atoms: _101  and  _103
REMARK   47  A    between atoms: _103  and  _104
REMARK   48  A    between atoms: _103  and  _106
REMARK   49  A    between atoms: _106  and  _107
REMARK   50  A    between atoms: _107  and  _108
REMARK   51  A    between atoms: _111  and  _113
REMARK   52  A    between atoms: _113  and  _114
REMARK   53  A    between atoms: _113  and  _116
REMARK   54  A    between atoms: _116  and  _117
REMARK   55  A    between atoms: _119  and  _121
REMARK   56  A    between atoms: _121  and  _122
REMARK   57  A    between atoms: _121  and  _124
REMARK   58  A    between atoms: _124  and  _125
REMARK   59  A    between atoms: _135  and  _137
REMARK   60  A    between atoms: _137  and  _138
REMARK   61  A    between atoms: _137  and  _140
REMARK   62  A    between atoms: _140  and  _141
REMARK   63  A    between atoms: _146  and  _148
REMARK   64  A    between atoms: _148  and  _149
REMARK   65  A    between atoms: _151  and  _153
REMARK   66  A    between atoms: _153  and  _154
REMARK   67  A    between atoms: _153  and  _156
REMARK   68  A    between atoms: _156  and  _157
REMARK   69  A    between atoms: _157  and  _158
REMARK   70  A    between atoms: _160  and  _162
REMARK   71  A    between atoms: _162  and  _163
REMARK   72  A    between atoms: _162  and  _165
REMARK   73  A    between atoms: _165  and  _166
REMARK   74  A    between atoms: _169  and  _171
REMARK   75  A    between atoms: _171  and  _172
REMARK   76  A    between atoms: _175  and  _177
REMARK   77  A    between atoms: _177  and  _178
REMARK   78  A    between atoms: _177  and  _180
REMARK   79  A    between atoms: _180  and  _181
REMARK   80  A    between atoms: _184  and  _186
REMARK   81  A    between atoms: _186  and  _187
REMARK   82  A    between atoms: _186  and  _189
REMARK   83  A    between atoms: _189  and  _190
REMARK   84  A    between atoms: _192  and  _194
REMARK   85  A    between atoms: _194  and  _195
REMARK   86  A    between atoms: _198  and  _200
REMARK   87  A    between atoms: _200  and  _201
REMARK   88  A    between atoms: _200  and  _203
REMARK   89  A    between atoms: _203  and  _205
REMARK   90  A    between atoms: _207  and  _209
REMARK   91  A    between atoms: _209  and  _210
REMARK   92  A    between atoms: _213  and  _215
REMARK   93  A    between atoms: _215  and  _216
REMARK   94  A    between atoms: _215  and  _218
REMARK   95  A    between atoms: _218  and  _219
REMARK   96  A    between atoms: _219  and  _220
REMARK   97  A    between atoms: _224  and  _225
REMARK   98  A    between atoms: _230  and  _232
REMARK   99  A    between atoms: _232  and  _233
REMARK  100  A    between atoms: _232  and  _235
REMARK  101  A    between atoms: _235  and  _236
REMARK  102  A    between atoms: _239  and  _241
REMARK  103  A    between atoms: _241  and  _242
REMARK  104  A    between atoms: _241  and  _244
REMARK  105  A    between atoms: _244  and  _245
REMARK  106  A    between atoms: _248  and  _250
REMARK  107  A    between atoms: _250  and  _251
REMARK  108  A    between atoms: _250  and  _253
REMARK  109  A    between atoms: _253  and  _254
REMARK  110  A    between atoms: _256  and  _258
REMARK  111  A    between atoms: _258  and  _259
REMARK  112  A    between atoms: _258  and  _261
REMARK  113  A    between atoms: _261  and  _262
REMARK  114  A    between atoms: _264  and  _266
REMARK  115  A    between atoms: _266  and  _267
REMARK  116  A    between atoms: _269  and  _271
REMARK  117  A    between atoms: _271  and  _272
REMARK  118  A    between atoms: _274  and  _276
REMARK  119  A    between atoms: _276  and  _277
REMARK  120  A    between atoms: _276  and  _279
REMARK  121  A    between atoms: _279  and  _280
REMARK  122  A    between atoms: _283  and  _285
REMARK  123  A    between atoms: _285  and  _286
REMARK  124  A    between atoms: _285  and  _288
REMARK  125  A    between atoms: _288  and  _289
REMARK  126  A    between atoms: _289  and  _290
REMARK  127  A    between atoms: _293  and  _295
REMARK  128  A    between atoms: _295  and  _296
REMARK  129  A    between atoms: _299  and  _301
REMARK  130  A    between atoms: _301  and  _302
REMARK  131  A    between atoms: _301  and  _304
REMARK  132  A    between atoms: _304  and  _305
REMARK  133  A    between atoms: _305  and  _306
REMARK  134  A    between atoms: _311  and  _313
REMARK  135  A    between atoms: _313  and  _314
REMARK  136  A    between atoms: _313  and  _316
REMARK  137  A    between atoms: _316  and  _317
REMARK  138  A    between atoms: _320  and  _322
REMARK  139  A    between atoms: _322  and  _323
REMARK  140  A    between atoms: _322  and  _325
REMARK  141  A    between atoms: _325  and  _326
REMARK  142  A    between atoms: _329  and  _331
REMARK  143  A    between atoms: _331  and  _332
REMARK  144  A    between atoms: _331  and  _334
REMARK  145  A    between atoms: _334  and  _335
REMARK  146  A    between atoms: _338  and  _340
REMARK  147  A    between atoms: _340  and  _341
REMARK  148  A    between atoms: _340  and  _343
REMARK  149  A    between atoms: _343  and  _344
REMARK  150  A    between atoms: _346  and  _348
REMARK  151  A    between atoms: _348  and  _349
REMARK  152  A    between atoms: _348  and  _351
REMARK  153  A    between atoms: _351  and  _352
REMARK  154  A    between atoms: _352  and  _353
REMARK  155  A    between atoms: _353  and  _354
REMARK  156  A    between atoms: _354  and  _355
REMARK  157  A    between atoms: _360  and  _361
REMARK  158  A    between atoms: _366  and  _368
REMARK  159  A    between atoms: _368  and  _369
REMARK  160  A    between atoms: _368  and  _371
REMARK  161  A    between atoms: _371  and  _372
REMARK  162  A    between atoms: _375  and  _377
REMARK  163  A    between atoms: _377  and  _378
REMARK  164  A    between atoms: _381  and  _383
REMARK  165  A    between atoms: _383  and  _384
REMARK  166  A    between atoms: _383  and  _386
REMARK  167  A    between atoms: _386  and  _387
REMARK  168  A    between atoms: _392  and  _394
REMARK  169  A    between atoms: _394  and  _395
REMARK  170  A    between atoms: _394  and  _397
REMARK  171  A    between atoms: _400  and  _402
REMARK  172  A    between atoms: _402  and  _403
REMARK  173  A    between atoms: _402  and  _405
REMARK  174  A    between atoms: _405  and  _406
REMARK  175  A    between atoms: _406  and  _407
REMARK  176  A    between atoms: _407  and  _408
REMARK  177  A    between atoms: _417  and  _419
REMARK  178  A    between atoms: _419  and  _420
REMARK  179  A    between atoms: _419  and  _422
REMARK  180  A    between atoms: _422  and  _423
REMARK  181  A    between atoms: _428  and  _430
REMARK  182  A    between atoms: _430  and  _431
REMARK  183  A    between atoms: _430  and  _433
REMARK  184  A    between atoms: _433  and  _434
REMARK  185  A    between atoms: _440  and  _442
REMARK  186  A    between atoms: _442  and  _443
REMARK  187  A    between atoms: _442  and  _445
REMARK  188  A    between atoms: _445  and  _446
REMARK  189  A    between atoms: _448  and  _450
REMARK  190  A    between atoms: _450  and  _451
REMARK  191  A    between atoms: _450  and  _453
REMARK  192  A    between atoms: _453  and  _454
REMARK  193  A    between atoms: _454  and  _455
REMARK  194  A    between atoms: _458  and  _460
REMARK  195  A    between atoms: _460  and  _461
REMARK  196  A    between atoms: _460  and  _463
REMARK  197  A    between atoms: _463  and  _464
REMARK  198  A    between atoms: _466  and  _468
REMARK  199  A    between atoms: _468  and  _469
REMARK  200  A    between atoms: _468  and  _471
REMARK  201  A    between atoms: _471  and  _472
REMARK  202  A    between atoms: _472  and  _473
REMARK  203  A    between atoms: _476  and  _478
REMARK  204  A    between atoms: _478  and  _479
REMARK  205  A    between atoms: _478  and  _481
REMARK  206  A    between atoms: _481  and  _482
REMARK  207  A    between atoms: _485  and  _487
REMARK  208  A    between atoms: _487  and  _488
REMARK  209  A    between atoms: _487  and  _490
REMARK  210  A    between atoms: _490  and  _491
REMARK  211  A    between atoms: _497  and  _499
REMARK  212  A    between atoms: _499  and  _500
REMARK  213  A    between atoms: _499  and  _502
REMARK  214  A    between atoms: _502  and  _503
REMARK  215  A    between atoms: _508  and  _509
REMARK  216  A    between atoms: _511  and  _513
REMARK  217  A    between atoms: _513  and  _514
REMARK  218  A    between atoms: _513  and  _516
REMARK  219  A    between atoms: _516  and  _517
REMARK  220  A    between atoms: _520  and  _522
REMARK  221  A    between atoms: _522  and  _523
REMARK  222  A    between atoms: _522  and  _525
REMARK  223  A    between atoms: _525  and  _526
REMARK  224  A    between atoms: _529  and  _531
REMARK  225  A    between atoms: _531  and  _532
REMARK  226  A    between atoms: _531  and  _534
REMARK  227  A    between atoms: _534  and  _535
REMARK  228  A    between atoms: _540  and  _542
REMARK  229  A    between atoms: _542  and  _543
REMARK  230  A    between atoms: _542  and  _545
REMARK                            x       y       z     vdW  Elec       q    Type
REMARK                         _______ _______ _______ _____ _____    ______ ____
ROOT
ATOM      1  CA  VAL A   1      10.605  58.149  26.633  0.00  0.00    +0.133 C 
ENDROOT
BRANCH   1   2
ATOM      2  CB  VAL A   1      11.018  58.148  25.140  0.00  0.00    +0.023 C 
ATOM      3  CG2 VAL A   1      11.038  56.751  24.618  0.00  0.00    +0.002 C 
ATOM      4  CG1 VAL A   1      10.039  59.066  24.262  0.00  0.00    +0.002 C 
ENDBRANCH   1   2
BRANCH   1   5
ATOM      5  N   VAL A   1       9.322  57.500  26.922  0.00  0.00    -0.239 NA
ATOM      6  H   VAL A   1       8.429  57.931  26.608  0.00  0.00    +0.142 HD
ENDBRANCH   1   5
BRANCH   1   7
ATOM      7  C   VAL A   1      10.416  59.539  27.078  0.00  0.00    +0.224 C 
ATOM      8  O   VAL A   1       9.330  60.124  26.936  0.00  0.00    -0.287 OA
ENDBRANCH   1   7
TORSDOF 3
REMARK  Name = ../refined-set-2016/1m0o/1m0o_pocket.pdb
REMARK  230 active torsions:
REMARK  status: ('A' for Active; 'I' for Inactive)
REMARK    1  A    between atoms: _1  and  _3
REMARK    2  A    between atoms: _3  and  _4
REMARK    3  A    between atoms: _3  and  _6
REMARK    4  A    between atoms: _6  and  _7
REMARK    5  A    between atoms: _10  and  _12
REMARK    6  A    between atoms: _12  and  _13
REMARK    7  A    between atoms: _15  and  _17
REMARK    8  A    between atoms: _17  and  _18
REMARK    9  A    between atoms: _17  and  _20
REMARK   10  A    between atoms: _20  and  _21
REMARK   11  A    between atoms: _21  and  _22
REMARK   12  A    between atoms: _27  and  _29
REMARK   13  A    between atoms: _29  and  _30
REMARK   14  A    between atoms: _29  and  _32
REMARK   15  A    between atoms: _32  and  _33
REMARK   16  A    between atoms: _33  and  _34
REMARK   17  A    between atoms: _36  and  _38
REMARK   18  A    between atoms: _38  and  _39
REMARK   19  A    between atoms: _38  and  _41
REMARK   20  A    between atoms: _41  and  _42
REMARK   21  A    between atoms: _44  and  _46
REMARK   22  A    between atoms: _46  and  _47
REMARK   23  A    between atoms: _46  and  _49
REMARK   24  A    between atoms: _49  and  _50
REMARK   25  A    between atoms: _52  and  _54
REMARK   26  A    between atoms: _54  and  _55
REMARK   27  A    between atoms: _54  and  _57
REMARK   28  A    between atoms: _57  and  _58
REMARK   29  A    between atoms: _61  and  _63
REMARK   30  A    between atoms: _63  and  _64
REMARK   31  A    between atoms: _66  and  _68
REMARK   32  A    between atoms: _68  and  _69
REMARK   33  A    between atoms: _72  and  _74
REMARK   34  A    between atoms: _74  and  _75
REMARK   35  A    between atoms: _74  and  _77
REMARK   36  A    between atoms: _77  and  _78
REMARK   37  A    between atoms: _78  and  _79
REMARK   38  A    between atoms: _82  and  _84
REMARK   39  A    between atoms: _84  and  _85
REMARK   40  A    between atoms: _84  and  _87
REMARK   41  A    between atoms: _87  and  _88
REMARK   42  A    between atoms: _90  and  _92
REMARK   43  A    between atoms: _92  and  _93
REMARK   44  A    between atoms: _92  and  _95
REMARK   45  A    between atoms: _95  and  _96
REMARK   46  A    between atoms: _101  and  _103
REMARK   47  A    between atoms: _103  and  _104
REMARK   48  A    between atoms: _103  and  _106
REMARK   49  A    between atoms: _106  and  _107
REMARK   50  A    between atoms: _107  and  _108
REMARK   51  A    between atoms: _111  and  _113
REMARK   52  A    between atoms: _113  and  _114
REMARK   53  A    between atoms: _113  and  _116
REMARK   54  A    between atoms: _116  and  _117
REMARK   55  A    between atoms: _119  and  _121
REMARK   56  A    between atoms: _121  and  _122
REMARK   57  A    between atoms: _121  and  _124
REMARK   58  A    between atoms: _124  and  _125
REMARK   59  A    between atoms: _135  and  _137
REMARK   60  A    between atoms: _137  and  _138
REMARK   61  A    between atoms: _137  and  _140
REMARK   62  A    between atoms: _140  and  _141
REMARK   63  A    between atoms: _146  and  _148
REMARK   64  A    between atoms: _148  and  _149
REMARK   65  A    between atoms: _151  and  _153
REMARK   66  A    between atoms: _153  and  _154
REMARK   67  A    between atoms: _153  and  _156
REMARK   68  A    between atoms: _156  and  _157
REMARK   69  A    between atoms: _157  and  _158
REMARK   70  A    between atoms: _160  and  _162
REMARK   71  A    between atoms: _162  and  _163
REMARK   72  A    between atoms: _162  and  _165
REMARK   73  A    between atoms: _165  and  _166
REMARK   74  A    between atoms: _169  and  _171
REMARK   75  A    between atoms: _171  and  _172
REMARK   76  A    between atoms: _175  and  _177
REMARK   77  A    between atoms: _177  and  _178
REMARK   78  A    between atoms: _177  and  _180
REMARK   79  A    between atoms: _180  and  _181
REMARK   80  A    between atoms: _184  and  _186
REMARK   81  A    between atoms: _186  and  _187
REMARK   82  A    between atoms: _186  and  _189
REMARK   83  A    between atoms: _189  and  _190
REMARK   84  A    between atoms: _192  and  _194
REMARK   85  A    between atoms: _194  and  _195
REMARK   86  A    between atoms: _198  and  _200
REMARK   87  A    between atoms: _200  and  _201
REMARK   88  A    between atoms: _200  and  _203
REMARK   89  A    between atoms: _203  and  _205
REMARK   90  A    between atoms: _207  and  _209
REMARK   91  A    between atoms: _209  and  _210
REMARK   92  A    between atoms: _213  and  _215
REMARK   93  A    between atoms: _215  and  _216
REMARK   94  A    between atoms: _215  and  _218
REMARK   95  A    between atoms: _218  and  _219
REMARK   96  A    between atoms: _219  and  _220
REMARK   97  A    between atoms: _224  and  _225
REMARK   98  A    between atoms: _230  and  _232
REMARK   99  A    between atoms: _232  and  _233
REMARK  100  A    between atoms: _232  and  _235
REMARK  101  A    between atoms: _235  and  _236
REMARK  102  A    between atoms: _239  and  _241
REMARK  103  A    between atoms: _241  and  _242
REMARK  104  A    between atoms: _241  and  _244
REMARK  105  A    between atoms: _244  and  _245
REMARK  106  A    between atoms: _248  and  _250
REMARK  107  A    between atoms: _250  and  _251
REMARK  108  A    between atoms: _250  and  _253
REMARK  109  A    between atoms: _253  and  _254
REMARK  110  A    between atoms: _256  and  _258
REMARK  111  A    between atoms: _258  and  _259
REMARK  112  A    between atoms: _258  and  _261
REMARK  113  A    between atoms: _261  and  _262
REMARK  114  A    between atoms: _264  and  _266
REMARK  115  A    between atoms: _266  and  _267
REMARK  116  A    between atoms: _269  and  _271
REMARK  117  A    between atoms: _271  and  _272
REMARK  118  A    between atoms: _274  and  _276
REMARK  119  A    between atoms: _276  and  _277
REMARK  120  A    between atoms: _276  and  _279
REMARK  121  A    between atoms: _279  and  _280
REMARK  122  A    between atoms: _283  and  _285
REMARK  123  A    between atoms: _285  and  _286
REMARK  124  A    between atoms: _285  and  _288
REMARK  125  A    between atoms: _288  and  _289
REMARK  126  A    between atoms: _289  and  _290
REMARK  127  A    between atoms: _293  and  _295
REMARK  128  A    between atoms: _295  and  _296
REMARK  129  A    between atoms: _299  and  _301
REMARK  130  A    between atoms: _301  and  _302
REMARK  131  A    between atoms: _301  and  _304
REMARK  132  A    between atoms: _304  and  _305
REMARK  133  A    between atoms: _305  and  _306
REMARK  134  A    between atoms: _311  and  _313
REMARK  135  A    between atoms: _313  and  _314
REMARK  136  A    between atoms: _313  and  _316
REMARK  137  A    between atoms: _316  and  _317
REMARK  138  A    between atoms: _320  and  _322
REMARK  139  A    between atoms: _322  and  _323
REMARK  140  A    between atoms: _322  and  _325
REMARK  141  A    between atoms: _325  and  _326
REMARK  142  A    between atoms: _329  and  _331
REMARK  143  A    between atoms: _331  and  _332
REMARK  144  A    between atoms: _331  and  _334
REMARK  145  A    between atoms: _334  and  _335
REMARK  146  A    between atoms: _338  and  _340
REMARK  147  A    between atoms: _340  and  _341
REMARK  148  A    between atoms: _340  and  _343
REMARK  149  A    between atoms: _343  and  _344
REMARK  150  A    between atoms: _346  and  _348
REMARK  151  A    between atoms: _348  and  _349
REMARK  152  A    between atoms: _348  and  _351
REMARK  153  A    between atoms: _351  and  _352
REMARK  154  A    between atoms: _352  and  _353
REMARK  155  A    between atoms: _353  and  _354
REMARK  156  A    between atoms: _354  and  _355
REMARK  157  A    between atoms: _360  and  _361
REMARK  158  A    between atoms: _366  and  _368
REMARK  159  A    between atoms: _368  and  _369
REMARK  160  A    between atoms: _368  and  _371
REMARK  161  A    between atoms: _371  and  _372
REMARK  162  A    between atoms: _375  and  _377
REMARK  163  A    between atoms: _377  and  _378
REMARK  164  A    between atoms: _381  and  _383
REMARK  165  A    between atoms: _383  and  _384
REMARK  166  A    between atoms: _383  and  _386
REMARK  167  A    between atoms: _386  and  _387
REMARK  168  A    between atoms: _392  and  _394
REMARK  169  A    between atoms: _394  and  _395
REMARK  170  A    between atoms: _394  and  _397
REMARK  171  A    between atoms: _400  and  _402
REMARK  172  A    between atoms: _402  and  _403
REMARK  173  A    between atoms: _402  and  _405
REMARK  174  A    between atoms: _405  and  _406
REMARK  175  A    between atoms: _406  and  _407
REMARK  176  A    between atoms: _407  and  _408
REMARK  177  A    between atoms: _417  and  _419
REMARK  178  A    between atoms: _419  and  _420
REMARK  179  A    between atoms: _419  and  _422
REMARK  180  A    between atoms: _422  and  _423
REMARK  181  A    between atoms: _428  and  _430
REMARK  182  A    between atoms: _430  and  _431
REMARK  183  A    between atoms: _430  and  _433
REMARK  184  A    between atoms: _433  and  _434
REMARK  185  A    between atoms: _440  and  _442
REMARK  186  A    between atoms: _442  and  _443
REMARK  187  A    between atoms: _442  and  _445
REMARK  188  A    between atoms: _445  and  _446
REMARK  189  A    between atoms: _448  and  _450
REMARK  190  A    between atoms: _450  and  _451
REMARK  191  A    between atoms: _450  and  _453
REMARK  192  A    between atoms: _453  and  _454
REMARK  193  A    between atoms: _454  and  _455
REMARK  194  A    between atoms: _458  and  _460
REMARK  195  A    between atoms: _460  and  _461
REMARK  196  A    between atoms: _460  and  _463
REMARK  197  A    between atoms: _463  and  _464
REMARK  198  A    between atoms: _466  and  _468
REMARK  199  A    between atoms: _468  and  _469
REMARK  200  A    between atoms: _468  and  _471
REMARK  201  A    between atoms: _471  and  _472
REMARK  202  A    between atoms: _472  and  _473
REMARK  203  A    between atoms: _476  and  _478
REMARK  204  A    between atoms: _478  and  _479
REMARK  205  A    between atoms: _478  and  _481
REMARK  206  A    between atoms: _481  and  _482
REMARK  207  A    between atoms: _485  and  _487
REMARK  208  A    between atoms: _487  and  _488
REMARK  209  A    between atoms: _487  and  _490
REMARK  210  A    between atoms: _490  and  _491
REMARK  211  A    between atoms: _497  and  _499
REMARK  212  A    between atoms: _499  and  _500
REMARK  213  A    between atoms: _499  and  _502
REMARK  214  A    between atoms: _502  and  _503
REMARK  215  A    between atoms: _508  and  _509
REMARK  216  A    between atoms: _511  and  _513
REMARK  217  A    between atoms: _513  and  _514
REMARK  218  A    between atoms: _513  and  _516
REMARK  219  A    between atoms: _516  and  _517
REMARK  220  A    between atoms: _520  and  _522
REMARK  221  A    between atoms: _522  and  _523
REMARK  222  A    between atoms: _522  and  _525
REMARK  223  A    between atoms: _525  and  _526
REMARK  224  A    between atoms: _529  and  _531
REMARK  225  A    between atoms: _531  and  _532
REMARK  226  A    between atoms: _531  and  _534
REMARK  227  A    between atoms: _534  and  _535
REMARK  228  A    between atoms: _540  and  _542
REMARK  229  A    between atoms: _542  and  _543
REMARK  230  A    between atoms: _542  and  _545
REMARK                            x       y       z     vdW  Elec       q    Type
REMARK                         _______ _______ _______ _____ _____    ______ ____
ROOT
ATOM      1  NE  ARG A   1      10.110  54.566  22.395  0.00  0.00    -0.265 N 
ATOM      2  HE  ARG A   1       9.849  54.280  23.360  0.00  0.00    +0.259 HD
ATOM      3  CZ  ARG A   1      11.197  53.977  21.846  0.00  0.00    +0.342 C 
ATOM      4  NH2 ARG A   1      11.875  53.061  22.525  0.00  0.00    -0.292 N 
ATOM      5 HH21 ARG A   1      11.571  52.793  23.483  0.00  0.00    +0.255 HD
ATOM      6 HH22 ARG A   1      12.710  52.611  22.099  0.00  0.00    +0.255 HD
ATOM      7  NH1 ARG A   1      11.588  54.278  20.627  0.00  0.00    -0.292 N 
ATOM      8 HH11 ARG A   1      12.426  53.815  20.221  0.00  0.00    +0.255 HD
ATOM      9 HH12 ARG A   1      11.059  54.979  20.069  0.00  0.00    +0.255 HD
ENDROOT
BRANCH   1  10
ATOM     10  CD  ARG A   1       9.260  55.586  21.734  0.00  0.00    +0.174 C 
BRANCH  10  11
ATOM     11  CG  ARG A   1       7.835  55.682  22.323  0.00  0.00    +0.045 C 
BRANCH  11  12
ATOM     12  CB  ARG A   1       7.039  54.338  22.307  0.00  0.00    +0.029 C 
BRANCH  12  13
ATOM     13  CA  ARG A   1       5.522  54.533  22.559  0.00  0.00    +0.133 C 
BRANCH  13  14
ATOM     14  N   ARG A   1       5.290  55.010  23.916  0.00  0.00    -0.239 NA
ATOM     15  H   ARG A   1       5.771  54.517  24.695  0.00  0.00    +0.142 HD
ENDBRANCH  13  14
BRANCH  13  16
ATOM     16  C   ARG A   1       4.764  53.222  22.433  0.00  0.00    +0.224 C 
ATOM     17  O   ARG A   1       5.147  52.207  22.996  0.00  0.00    -0.287 OA
ENDBRANCH  13  16
ENDBRANCH  12  13
ENDBRANCH  11  12
ENDBRANCH  10  11
ENDBRANCH   1  10
TORSDOF 6
REMARK  Name = ../refined-set-2016/1m0o/1m0o_pocket.pdb
REMARK  230 active torsions:
REMARK  status: ('A' for Active; 'I' for Inactive)
REMARK    1  A    between atoms: _1  and  _3
REMARK    2  A    between atoms: _3  and  _4
REMARK    3  A    between atoms: _3  and  _6
REMARK    4  A    between atoms: _6  and  _7
REMARK    5  A    between atoms: _10  and  _12
REMARK    6  A    between atoms: _12  and  _13
REMARK    7  A    between atoms: _15  and  _17
REMARK    8  A    between atoms: _17  and  _18
REMARK    9  A    between atoms: _17  and  _20
REMARK   10  A    between atoms: _20  and  _21
REMARK   11  A    between atoms: _21  and  _22
REMARK   12  A    between atoms: _27  and  _29
REMARK   13  A    between atoms: _29  and  _30
REMARK   14  A    between atoms: _29  and  _32
REMARK   15  A    between atoms: _32  and  _33
REMARK   16  A    between atoms: _33  and  _34
REMARK   17  A    between atoms: _36  and  _38
REMARK   18  A    between atoms: _38  and  _39
REMARK   19  A    between atoms: _38  and  _41
REMARK   20  A    between atoms: _41  and  _42
REMARK   21  A    between atoms: _44  and  _46
REMARK   22  A    between atoms: _46  and  _47
REMARK   23  A    between atoms: _46  and  _49
REMARK   24  A    between atoms: _49  and  _50
REMARK   25  A    between atoms: _52  and  _54
REMARK   26  A    between atoms: _54  and  _55
REMARK   27  A    between atoms: _54  and  _57
REMARK   28  A    between atoms: _57  and  _58
REMARK   29  A    between atoms: _61  and  _63
REMARK   30  A    between atoms: _63  and  _64
REMARK   31  A    between atoms: _66  and  _68
REMARK   32  A    between atoms: _68  and  _69
REMARK   33  A    between atoms: _72  and  _74
REMARK   34  A    between atoms: _74  and  _75
REMARK   35  A    between atoms: _74  and  _77
REMARK   36  A    between atoms: _77  and  _78
REMARK   37  A    between atoms: _78  and  _79
REMARK   38  A    between atoms: _82  and  _84
REMARK   39  A    between atoms: _84  and  _85
REMARK   40  A    between atoms: _84  and  _87
REMARK   41  A    between atoms: _87  and  _88
REMARK   42  A    between atoms: _90  and  _92
REMARK   43  A    between atoms: _92  and  _93
REMARK   44  A    between atoms: _92  and  _95
REMARK   45  A    between atoms: _95  and  _96
REMARK   46  A    between atoms: _101  and  _103
REMARK   47  A    between atoms: _103  and  _104
REMARK   48  A    between atoms: _103  and  _106
REMARK   49  A    between atoms: _106  and  _107
REMARK   50  A    between atoms: _107  and  _108
REMARK   51  A    between atoms: _111  and  _113
REMARK   52  A    between atoms: _113  and  _114
REMARK   53  A    between atoms: _113  and  _116
REMARK   54  A    between atoms: _116  and  _117
REMARK   55  A    between atoms: _119  and  _121
REMARK   56  A    between atoms: _121  and  _122
REMARK   57  A    between atoms: _121  and  _124
REMARK   58  A    between atoms: _124  and  _125
REMARK   59  A    between atoms: _135  and  _137
REMARK   60  A    between atoms: _137  and  _138
REMARK   61  A    between atoms: _137  and  _140
REMARK   62  A    between atoms: _140  and  _141
REMARK   63  A    between atoms: _146  and  _148
REMARK   64  A    between atoms: _148  and  _149
REMARK   65  A    between atoms: _151  and  _153
REMARK   66  A    between atoms: _153  and  _154
REMARK   67  A    between atoms: _153  and  _156
REMARK   68  A    between atoms: _156  and  _157
REMARK   69  A    between atoms: _157  and  _158
REMARK   70  A    between atoms: _160  and  _162
REMARK   71  A    between atoms: _162  and  _163
REMARK   72  A    between atoms: _162  and  _165
REMARK   73  A    between atoms: _165  and  _166
REMARK   74  A    between atoms: _169  and  _171
REMARK   75  A    between atoms: _171  and  _172
REMARK   76  A    between atoms: _175  and  _177
REMARK   77  A    between atoms: _177  and  _178
REMARK   78  A    between atoms: _177  and  _180
REMARK   79  A    between atoms: _180  and  _181
REMARK   80  A    between atoms: _184  and  _186
REMARK   81  A    between atoms: _186  and  _187
REMARK   82  A    between atoms: _186  and  _189
REMARK   83  A    between atoms: _189  and  _190
REMARK   84  A    between atoms: _192  and  _194
REMARK   85  A    between atoms: _194  and  _195
REMARK   86  A    between atoms: _198  and  _200
REMARK   87  A    between atoms: _200  and  _201
REMARK   88  A    between atoms: _200  and  _203
REMARK   89  A    between atoms: _203  and  _205
REMARK   90  A    between atoms: _207  and  _209
REMARK   91  A    between atoms: _209  and  _210
REMARK   92  A    between atoms: _213  and  _215
REMARK   93  A    between atoms: _215  and  _216
REMARK   94  A    between atoms: _215  and  _218
REMARK   95  A    between atoms: _218  and  _219
REMARK   96  A    between atoms: _219  and  _220
REMARK   97  A    between atoms: _224  and  _225
REMARK   98  A    between atoms: _230  and  _232
REMARK   99  A    between atoms: _232  and  _233
REMARK  100  A    between atoms: _232  and  _235
REMARK  101  A    between atoms: _235  and  _236
REMARK  102  A    between atoms: _239  and  _241
REMARK  103  A    between atoms: _241  and  _242
REMARK  104  A    between atoms: _241  and  _244
REMARK  105  A    between atoms: _244  and  _245
REMARK  106  A    between atoms: _248  and  _250
REMARK  107  A    between atoms: _250  and  _251
REMARK  108  A    between atoms: _250  and  _253
REMARK  109  A    between atoms: _253  and  _254
REMARK  110  A    between atoms: _256  and  _258
REMARK  111  A    between atoms: _258  and  _259
REMARK  112  A    between atoms: _258  and  _261
REMARK  113  A    between atoms: _261  and  _262
REMARK  114  A    between atoms: _264  and  _266
REMARK  115  A    between atoms: _266  and  _267
REMARK  116  A    between atoms: _269  and  _271
REMARK  117  A    between atoms: _271  and  _272
REMARK  118  A    between atoms: _274  and  _276
REMARK  119  A    between atoms: _276  and  _277
REMARK  120  A    between atoms: _276  and  _279
REMARK  121  A    between atoms: _279  and  _280
REMARK  122  A    between atoms: _283  and  _285
REMARK  123  A    between atoms: _285  and  _286
REMARK  124  A    between atoms: _285  and  _288
REMARK  125  A    between atoms: _288  and  _289
REMARK  126  A    between atoms: _289  and  _290
REMARK  127  A    between atoms: _293  and  _295
REMARK  128  A    between atoms: _295  and  _296
REMARK  129  A    between atoms: _299  and  _301
REMARK  130  A    between atoms: _301  and  _302
REMARK  131  A    between atoms: _301  and  _304
REMARK  132  A    between atoms: _304  and  _305
REMARK  133  A    between atoms: _305  and  _306
REMARK  134  A    between atoms: _311  and  _313
REMARK  135  A    between atoms: _313  and  _314
REMARK  136  A    between atoms: _313  and  _316
REMARK  137  A    between atoms: _316  and  _317
REMARK  138  A    between atoms: _320  and  _322
REMARK  139  A    between atoms: _322  and  _323
REMARK  140  A    between atoms: _322  and  _325
REMARK  141  A    between atoms: _325  and  _326
REMARK  142  A    between atoms: _329  and  _331
REMARK  143  A    between atoms: _331  and  _332
REMARK  144  A    between atoms: _331  and  _334
REMARK  145  A    between atoms: _334  and  _335
REMARK  146  A    between atoms: _338  and  _340
REMARK  147  A    between atoms: _340  and  _341
REMARK  148  A    between atoms: _340  and  _343
REMARK  149  A    between atoms: _343  and  _344
REMARK  150  A    between atoms: _346  and  _348
REMARK  151  A    between atoms: _348  and  _349
REMARK  152  A    between atoms: _348  and  _351
REMARK  153  A    between atoms: _351  and  _352
REMARK  154  A    between atoms: _352  and  _353
REMARK  155  A    between atoms: _353  and  _354
REMARK  156  A    between atoms: _354  and  _355
REMARK  157  A    between atoms: _360  and  _361
REMARK  158  A    between atoms: _366  and  _368
REMARK  159  A    between atoms: _368  and  _369
REMARK  160  A    between atoms: _368  and  _371
REMARK  161  A    between atoms: _371  and  _372
REMARK  162  A    between atoms: _375  and  _377
REMARK  163  A    between atoms: _377  and  _378
REMARK  164  A    between atoms: _381  and  _383
REMARK  165  A    between atoms: _383  and  _384
REMARK  166  A    between atoms: _383  and  _386
REMARK  167  A    between atoms: _386  and  _387
REMARK  168  A    between atoms: _392  and  _394
REMARK  169  A    between atoms: _394  and  _395
REMARK  170  A    between atoms: _394  and  _397
REMARK  171  A    between atoms: _400  and  _402
REMARK  172  A    between atoms: _402  and  _403
REMARK  173  A    between atoms: _402  and  _405
REMARK  174  A    between atoms: _405  and  _406
REMARK  175  A    between atoms: _406  and  _407
REMARK  176  A    between atoms: _407  and  _408
REMARK  177  A    between atoms: _417  and  _419
REMARK  178  A    between atoms: _419  and  _420
REMARK  179  A    between atoms: _419  and  _422
REMARK  180  A    between atoms: _422  and  _423
REMARK  181  A    between atoms: _428  and  _430
REMARK  182  A    between atoms: _430  and  _431
REMARK  183  A    between atoms: _430  and  _433
REMARK  184  A    between atoms: _433  and  _434
REMARK  185  A    between atoms: _440  and  _442
REMARK  186  A    between atoms: _442  and  _443
REMARK  187  A    between atoms: _442  and  _445
REMARK  188  A    between atoms: _445  and  _446
REMARK  189  A    between atoms: _448  and  _450
REMARK  190  A    between atoms: _450  and  _451
REMARK  191  A    between atoms: _450  and  _453
REMARK  192  A    between atoms: _453  and  _454
REMARK  193  A    between atoms: _454  and  _455
REMARK  194  A    between atoms: _458  and  _460
REMARK  195  A    between atoms: _460  and  _461
REMARK  196  A    between atoms: _460  and  _463
REMARK  197  A    between atoms: _463  and  _464
REMARK  198  A    between atoms: _466  and  _468
REMARK  199  A    between atoms: _468  and  _469
REMARK  200  A    between atoms: _468  and  _471
REMARK  201  A    between atoms: _471  and  _472
REMARK  202  A    between atoms: _472  and  _473
REMARK  203  A    between atoms: _476  and  _478
REMARK  204  A    between atoms: _478  and  _479
REMARK  205  A    between atoms: _478  and  _481
REMARK  206  A    between atoms: _481  and  _482
REMARK  207  A    between atoms: _485  and  _487
REMARK  208  A    between atoms: _487  and  _488
REMARK  209  A    between atoms: _487  and  _490
REMARK  210  A    between atoms: _490  and  _491
REMARK  211  A    between atoms: _497  and  _499
REMARK  212  A    between atoms: _499  and  _500
REMARK  213  A    between atoms: _499  and  _502
REMARK  214  A    between atoms: _502  and  _503
REMARK  215  A    between atoms: _508  and  _509
REMARK  216  A    between atoms: _511  and  _513
REMARK  217  A    between atoms: _513  and  _514
REMARK  218  A    between atoms: _513  and  _516
REMARK  219  A    between atoms: _516  and  _517
REMARK  220  A    between atoms: _520  and  _522
REMARK  221  A    between atoms: _522  and  _523
REMARK  222  A    between atoms: _522  and  _525
REMARK  223  A    between atoms: _525  and  _526
REMARK  224  A    between atoms: _529  and  _531
REMARK  225  A    between atoms: _531  and  _532
REMARK  226  A    between atoms: _531  and  _534
REMARK  227  A    between atoms: _534  and  _535
REMARK  228  A    between atoms: _540  and  _542
REMARK  229  A    between atoms: _542  and  _543
REMARK  230  A    between atoms: _542  and  _545
REMARK                            x       y       z     vdW  Elec       q    Type
REMARK                         _______ _______ _______ _____ _____    ______ ____
ROOT
ATOM      1  CB  HIS A   1      13.403  38.961  19.736  0.00  0.00    +0.072 C 
ENDROOT
BRANCH   1   2
ATOM      2  CG  HIS A   1      13.280  40.467  19.816  0.00  0.00    +0.082 A 
ATOM      3  CD2 HIS A   1      12.190  41.269  19.904  0.00  0.00    +0.115 A 
ATOM      4  NE2 HIS A   1      12.641  42.567  20.037  0.00  0.00    -0.221 NA
ATOM      5  CE1 HIS A   1      13.963  42.560  20.022  0.00  0.00    +0.199 A 
ATOM      6  ND1 HIS A   1      14.374  41.309  19.876  0.00  0.00    -0.227 NA
ENDBRANCH   1   2
BRANCH   1   7
ATOM      7  CA  HIS A   1      13.405  38.226  21.185  0.00  0.00    +0.139 C 
BRANCH   7   8
ATOM      8  N   HIS A   1      12.793  36.907  21.099  0.00  0.00    -0.239 NA
ATOM      9  H   HIS A   1      11.761  36.812  21.184  0.00  0.00    +0.142 HD
ENDBRANCH   7   8
BRANCH   7  10
ATOM     10  C   HIS A   1      12.548  39.018  22.159  0.00  0.00    +0.224 C 
ATOM     11  O   HIS A   1      11.329  38.872  22.177  0.00  0.00    -0.287 OA
ENDBRANCH   7  10
ENDBRANCH   1   7
TORSDOF 4
REMARK  Name = ../refined-set-2016/1m0o/1m0o_pocket.pdb
REMARK  230 active torsions:
REMARK  status: ('A' for Active; 'I' for Inactive)
REMARK    1  A    between atoms: _1  and  _3
REMARK    2  A    between atoms: _3  and  _4
REMARK    3  A    between atoms: _3  and  _6
REMARK    4  A    between atoms: _6  and  _7
REMARK    5  A    between atoms: _10  and  _12
REMARK    6  A    between atoms: _12  and  _13
REMARK    7  A    between atoms: _15  and  _17
REMARK    8  A    between atoms: _17  and  _18
REMARK    9  A    between atoms: _17  and  _20
REMARK   10  A    between atoms: _20  and  _21
REMARK   11  A    between atoms: _21  and  _22
REMARK   12  A    between atoms: _27  and  _29
REMARK   13  A    between atoms: _29  and  _30
REMARK   14  A    between atoms: _29  and  _32
REMARK   15  A    between atoms: _32  and  _33
REMARK   16  A    between atoms: _33  and  _34
REMARK   17  A    between atoms: _36  and  _38
REMARK   18  A    between atoms: _38  and  _39
REMARK   19  A    between atoms: _38  and  _41
REMARK   20  A    between atoms: _41  and  _42
REMARK   21  A    between atoms: _44  and  _46
REMARK   22  A    between atoms: _46  and  _47
REMARK   23  A    between atoms: _46  and  _49
REMARK   24  A    between atoms: _49  and  _50
REMARK   25  A    between atoms: _52  and  _54
REMARK   26  A    between atoms: _54  and  _55
REMARK   27  A    between atoms: _54  and  _57
REMARK   28  A    between atoms: _57  and  _58
REMARK   29  A    between atoms: _61  and  _63
REMARK   30  A    between atoms: _63  and  _64
REMARK   31  A    between atoms: _66  and  _68
REMARK   32  A    between atoms: _68  and  _69
REMARK   33  A    between atoms: _72  and  _74
REMARK   34  A    between atoms: _74  and  _75
REMARK   35  A    between atoms: _74  and  _77
REMARK   36  A    between atoms: _77  and  _78
REMARK   37  A    between atoms: _78  and  _79
REMARK   38  A    between atoms: _82  and  _84
REMARK   39  A    between atoms: _84  and  _85
REMARK   40  A    between atoms: _84  and  _87
REMARK   41  A    between atoms: _87  and  _88
REMARK   42  A    between atoms: _90  and  _92
REMARK   43  A    between atoms: _92  and  _93
REMARK   44  A    between atoms: _92  and  _95
REMARK   45  A    between atoms: _95  and  _96
REMARK   46  A    between atoms: _101  and  _103
REMARK   47  A    between atoms: _103  and  _104
REMARK   48  A    between atoms: _103  and  _106
REMARK   49  A    between atoms: _106  and  _107
REMARK   50  A    between atoms: _107  and  _108
REMARK   51  A    between atoms: _111  and  _113
REMARK   52  A    between atoms: _113  and  _114
REMARK   53  A    between atoms: _113  and  _116
REMARK   54  A    between atoms: _116  and  _117
REMARK   55  A    between atoms: _119  and  _121
REMARK   56  A    between atoms: _121  and  _122
REMARK   57  A    between atoms: _121  and  _124
REMARK   58  A    between atoms: _124  and  _125
REMARK   59  A    between atoms: _135  and  _137
REMARK   60  A    between atoms: _137  and  _138
REMARK   61  A    between atoms: _137  and  _140
REMARK   62  A    between atoms: _140  and  _141
REMARK   63  A    between atoms: _146  and  _148
REMARK   64  A    between atoms: _148  and  _149
REMARK   65  A    between atoms: _151  and  _153
REMARK   66  A    between atoms: _153  and  _154
REMARK   67  A    between atoms: _153  and  _156
REMARK   68  A    between atoms: _156  and  _157
REMARK   69  A    between atoms: _157  and  _158
REMARK   70  A    between atoms: _160  and  _162
REMARK   71  A    between atoms: _162  and  _163
REMARK   72  A    between atoms: _162  and  _165
REMARK   73  A    between atoms: _165  and  _166
REMARK   74  A    between atoms: _169  and  _171
REMARK   75  A    between atoms: _171  and  _172
REMARK   76  A    between atoms: _175  and  _177
REMARK   77  A    between atoms: _177  and  _178
REMARK   78  A    between atoms: _177  and  _180
REMARK   79  A    between atoms: _180  and  _181
REMARK   80  A    between atoms: _184  and  _186
REMARK   81  A    between atoms: _186  and  _187
REMARK   82  A    between atoms: _186  and  _189
REMARK   83  A    between atoms: _189  and  _190
REMARK   84  A    between atoms: _192  and  _194
REMARK   85  A    between atoms: _194  and  _195
REMARK   86  A    between atoms: _198  and  _200
REMARK   87  A    between atoms: _200  and  _201
REMARK   88  A    between atoms: _200  and  _203
REMARK   89  A    between atoms: _203  and  _205
REMARK   90  A    between atoms: _207  and  _209
REMARK   91  A    between atoms: _209  and  _210
REMARK   92  A    between atoms: _213  and  _215
REMARK   93  A    between atoms: _215  and  _216
REMARK   94  A    between atoms: _215  and  _218
REMARK   95  A    between atoms: _218  and  _219
REMARK   96  A    between atoms: _219  and  _220
REMARK   97  A    between atoms: _224  and  _225
REMARK   98  A    between atoms: _230  and  _232
REMARK   99  A    between atoms: _232  and  _233
REMARK  100  A    between atoms: _232  and  _235
REMARK  101  A    between atoms: _235  and  _236
REMARK  102  A    between atoms: _239  and  _241
REMARK  103  A    between atoms: _241  and  _242
REMARK  104  A    between atoms: _241  and  _244
REMARK  105  A    between atoms: _244  and  _245
REMARK  106  A    between atoms: _248  and  _250
REMARK  107  A    between atoms: _250  and  _251
REMARK  108  A    between atoms: _250  and  _253
REMARK  109  A    between atoms: _253  and  _254
REMARK  110  A    between atoms: _256  and  _258
REMARK  111  A    between atoms: _258  and  _259
REMARK  112  A    between atoms: _258  and  _261
REMARK  113  A    between atoms: _261  and  _262
REMARK  114  A    between atoms: _264  and  _266
REMARK  115  A    between atoms: _266  and  _267
REMARK  116  A    between atoms: _269  and  _271
REMARK  117  A    between atoms: _271  and  _272
REMARK  118  A    between atoms: _274  and  _276
REMARK  119  A    between atoms: _276  and  _277
REMARK  120  A    between atoms: _276  and  _279
REMARK  121  A    between atoms: _279  and  _280
REMARK  122  A    between atoms: _283  and  _285
REMARK  123  A    between atoms: _285  and  _286
REMARK  124  A    between atoms: _285  and  _288
REMARK  125  A    between atoms: _288  and  _289
REMARK  126  A    between atoms: _289  and  _290
REMARK  127  A    between atoms: _293  and  _295
REMARK  128  A    between atoms: _295  and  _296
REMARK  129  A    between atoms: _299  and  _301
REMARK  130  A    between atoms: _301  and  _302
REMARK  131  A    between atoms: _301  and  _304
REMARK  132  A    between atoms: _304  and  _305
REMARK  133  A    between atoms: _305  and  _306
REMARK  134  A    between atoms: _311  and  _313
REMARK  135  A    between atoms: _313  and  _314
REMARK  136  A    between atoms: _313  and  _316
REMARK  137  A    between atoms: _316  and  _317
REMARK  138  A    between atoms: _320  and  _322
REMARK  139  A    between atoms: _322  and  _323
REMARK  140  A    between atoms: _322  and  _325
REMARK  141  A    between atoms: _325  and  _326
REMARK  142  A    between atoms: _329  and  _331
REMARK  143  A    between atoms: _331  and  _332
REMARK  144  A    between atoms: _331  and  _334
REMARK  145  A    between atoms: _334  and  _335
REMARK  146  A    between atoms: _338  and  _340
REMARK  147  A    between atoms: _340  and  _341
REMARK  148  A    between atoms: _340  and  _343
REMARK  149  A    between atoms: _343  and  _344
REMARK  150  A    between atoms: _346  and  _348
REMARK  151  A    between atoms: _348  and  _349
REMARK  152  A    between atoms: _348  and  _351
REMARK  153  A    between atoms: _351  and  _352
REMARK  154  A    between atoms: _352  and  _353
REMARK  155  A    between atoms: _353  and  _354
REMARK  156  A    between atoms: _354  and  _355
REMARK  157  A    between atoms: _360  and  _361
REMARK  158  A    between atoms: _366  and  _368
REMARK  159  A    between atoms: _368  and  _369
REMARK  160  A    between atoms: _368  and  _371
REMARK  161  A    between atoms: _371  and  _372
REMARK  162  A    between atoms: _375  and  _377
REMARK  163  A    between atoms: _377  and  _378
REMARK  164  A    between atoms: _381  and  _383
REMARK  165  A    between atoms: _383  and  _384
REMARK  166  A    between atoms: _383  and  _386
REMARK  167  A    between atoms: _386  and  _387
REMARK  168  A    between atoms: _392  and  _394
REMARK  169  A    between atoms: _394  and  _395
REMARK  170  A    between atoms: _394  and  _397
REMARK  171  A    between atoms: _400  and  _402
REMARK  172  A    between atoms: _402  and  _403
REMARK  173  A    between atoms: _402  and  _405
REMARK  174  A    between atoms: _405  and  _406
REMARK  175  A    between atoms: _406  and  _407
REMARK  176  A    between atoms: _407  and  _408
REMARK  177  A    between atoms: _417  and  _419
REMARK  178  A    between atoms: _419  and  _420
REMARK  179  A    between atoms: _419  and  _422
REMARK  180  A    between atoms: _422  and  _423
REMARK  181  A    between atoms: _428  and  _430
REMARK  182  A    between atoms: _430  and  _431
REMARK  183  A    between atoms: _430  and  _433
REMARK  184  A    between atoms: _433  and  _434
REMARK  185  A    between atoms: _440  and  _442
REMARK  186  A    between atoms: _442  and  _443
REMARK  187  A    between atoms: _442  and  _445
REMARK  188  A    between atoms: _445  and  _446
REMARK  189  A    between atoms: _448  and  _450
REMARK  190  A    between atoms: _450  and  _451
REMARK  191  A    between atoms: _450  and  _453
REMARK  192  A    between atoms: _453  and  _454
REMARK  193  A    between atoms: _454  and  _455
REMARK  194  A    between atoms: _458  and  _460
REMARK  195  A    between atoms: _460  and  _461
REMARK  196  A    between atoms: _460  and  _463
REMARK  197  A    between atoms: _463  and  _464
REMARK  198  A    between atoms: _466  and  _468
REMARK  199  A    between atoms: _468  and  _469
REMARK  200  A    between atoms: _468  and  _471
REMARK  201  A    between atoms: _471  and  _472
REMARK  202  A    between atoms: _472  and  _473
REMARK  203  A    between atoms: _476  and  _478
REMARK  204  A    between atoms: _478  and  _479
REMARK  205  A    between atoms: _478  and  _481
REMARK  206  A    between atoms: _481  and  _482
REMARK  207  A    between atoms: _485  and  _487
REMARK  208  A    between atoms: _487  and  _488
REMARK  209  A    between atoms: _487  and  _490
REMARK  210  A    between atoms: _490  and  _491
REMARK  211  A    between atoms: _497  and  _499
REMARK  212  A    between atoms: _499  and  _500
REMARK  213  A    between atoms: _499  and  _502
REMARK  214  A    between atoms: _502  and  _503
REMARK  215  A    between atoms: _508  and  _509
REMARK  216  A    between atoms: _511  and  _513
REMARK  217  A    between atoms: _513  and  _514
REMARK  218  A    between atoms: _513  and  _516
REMARK  219  A    between atoms: _516  and  _517
REMARK  220  A    between atoms: _520  and  _522
REMARK  221  A    between atoms: _522  and  _523
REMARK  222  A    between atoms: _522  and  _525
REMARK  223  A    between atoms: _525  and  _526
REMARK  224  A    between atoms: _529  and  _531
REMARK  225  A    between atoms: _531  and  _532
REMARK  226  A    between atoms: _531  and  _534
REMARK  227  A    between atoms: _534  and  _535
REMARK  228  A    between atoms: _540  and  _542
REMARK  229  A    between atoms: _542  and  _543
REMARK  230  A    between atoms: _542  and  _545
REMARK                            x       y       z     vdW  Elec       q    Type
REMARK                         _______ _______ _______ _____ _____    ______ ____
ROOT
ATOM      1  CA  SER A   2      15.933  45.014  25.991  0.00  0.00    +0.178 C 
ENDROOT
BRANCH   1   4
ATOM      2  C   PHE A   1      13.695  44.156  25.871  0.00  0.00    +0.239 C 
ATOM      3  O   PHE A   1      13.948  43.289  26.720  0.00  0.00    -0.274 OA
ATOM      4  N   SER A   2      14.580  45.059  25.517  0.00  0.00    -0.295 N 
ATOM      5  H   SER A   2      14.293  45.826  24.877  0.00  0.00    +0.150 HD
BRANCH   2   6
ATOM      6  CA  PHE A   1      12.320  44.195  25.124  0.00  0.00    +0.149 C 
BRANCH   6   7
ATOM      7  N   PHE A   1      12.048  42.829  24.772  0.00  0.00    -0.238 NA
ATOM      8  H   PHE A   1      11.149  42.406  25.078  0.00  0.00    +0.142 HD
ENDBRANCH   6   7
BRANCH   6   9
ATOM      9  CB  PHE A   1      11.200  44.642  26.060  0.00  0.00    +0.053 C 
BRANCH   9  10
ATOM     10  CG  PHE A   1      11.422  45.982  26.650  0.00  0.00    -0.020 A 
ATOM     11  CD2 PHE A   1      11.787  46.101  27.976  0.00  0.00    -0.004 A 
ATOM     12  CE2 PHE A   1      12.011  47.346  28.534  0.00  0.00    -0.000 A 
ATOM     13  CZ  PHE A   1      11.908  48.526  27.706  0.00  0.00    -0.000 A 
ATOM     14  CE1 PHE A   1      11.527  48.401  26.350  0.00  0.00    -0.000 A 
ATOM     15  CD1 PHE A   1      11.282  47.129  25.856  0.00  0.00    -0.004 A 
ENDBRANCH   9  10
ENDBRANCH   6   9
ENDBRANCH   2   6
ENDBRANCH   1   4
BRANCH   1  16
ATOM     16  C   SER A   2      16.075  45.191  27.496  0.00  0.00    +0.243 C 
ATOM     17  N   GLU A   3      14.973  45.467  28.196  0.00  0.00    -0.298 N 
ATOM     18  H   GLU A   3      14.061  45.601  27.715  0.00  0.00    +0.150 HD
ATOM     19  O   SER A   2      17.102  44.957  28.075  0.00  0.00    -0.273 OA
BRANCH  17  20
ATOM     20  CA  GLU A   3      15.067  45.575  29.612  0.00  0.00    +0.137 C 
BRANCH  20  21
ATOM     21  C   GLU A   3      14.542  44.347  30.411  0.00  0.00    +0.227 C 
ATOM     22  O   GLU A   3      14.577  44.284  31.674  0.00  0.00    -0.286 OA
ENDBRANCH  20  21
BRANCH  20  23
ATOM     23  CB  GLU A   3      14.546  46.958  30.070  0.00  0.00    +0.039 C 
BRANCH  23  24
ATOM     24  CG  GLU A   3      15.438  48.086  29.664  0.00  0.00    +0.116 C 
BRANCH  24  25
ATOM     25  CD  GLU A   3      14.771  49.535  29.549  0.00  0.00    +0.365 C 
ATOM     26  OE2 GLU A   3      14.236  50.077  30.567  0.00  0.00    -0.246 OA
ATOM     27  OE1 GLU A   3      14.885  50.186  28.461  0.00  0.00    -0.246 OA
ENDBRANCH  24  25
ENDBRANCH  23  24
ENDBRANCH  20  23
ENDBRANCH  17  20
ENDBRANCH   1  16
BRANCH   1  28
ATOM     28  CB  SER A   2      16.838  45.886  25.093  0.00  0.00    +0.166 C 
BRANCH  28  29
ATOM     29  OG  SER A   2      16.984  45.194  23.813  0.00  0.00    -0.380 OA
ATOM     30  H   SER A   2      17.561  45.730  23.213  0.00  0.00    +0.211 HD
ENDBRANCH  28  29
ENDBRANCH   1  28
TORSDOF 13
REMARK  Name = ../refined-set-2016/1m0o/1m0o_pocket.pdb
REMARK  230 active torsions:
REMARK  status: ('A' for Active; 'I' for Inactive)
REMARK    1  A    between atoms: _1  and  _3
REMARK    2  A    between atoms: _3  and  _4
REMARK    3  A    between atoms: _3  and  _6
REMARK    4  A    between atoms: _6  and  _7
REMARK    5  A    between atoms: _10  and  _12
REMARK    6  A    between atoms: _12  and  _13
REMARK    7  A    between atoms: _15  and  _17
REMARK    8  A    between atoms: _17  and  _18
REMARK    9  A    between atoms: _17  and  _20
REMARK   10  A    between atoms: _20  and  _21
REMARK   11  A    between atoms: _21  and  _22
REMARK   12  A    between atoms: _27  and  _29
REMARK   13  A    between atoms: _29  and  _30
REMARK   14  A    between atoms: _29  and  _32
REMARK   15  A    between atoms: _32  and  _33
REMARK   16  A    between atoms: _33  and  _34
REMARK   17  A    between atoms: _36  and  _38
REMARK   18  A    between atoms: _38  and  _39
REMARK   19  A    between atoms: _38  and  _41
REMARK   20  A    between atoms: _41  and  _42
REMARK   21  A    between atoms: _44  and  _46
REMARK   22  A    between atoms: _46  and  _47
REMARK   23  A    between atoms: _46  and  _49
REMARK   24  A    between atoms: _49  and  _50
REMARK   25  A    between atoms: _52  and  _54
REMARK   26  A    between atoms: _54  and  _55
REMARK   27  A    between atoms: _54  and  _57
REMARK   28  A    between atoms: _57  and  _58
REMARK   29  A    between atoms: _61  and  _63
REMARK   30  A    between atoms: _63  and  _64
REMARK   31  A    between atoms: _66  and  _68
REMARK   32  A    between atoms: _68  and  _69
REMARK   33  A    between atoms: _72  and  _74
REMARK   34  A    between atoms: _74  and  _75
REMARK   35  A    between atoms: _74  and  _77
REMARK   36  A    between atoms: _77  and  _78
REMARK   37  A    between atoms: _78  and  _79
REMARK   38  A    between atoms: _82  and  _84
REMARK   39  A    between atoms: _84  and  _85
REMARK   40  A    between atoms: _84  and  _87
REMARK   41  A    between atoms: _87  and  _88
REMARK   42  A    between atoms: _90  and  _92
REMARK   43  A    between atoms: _92  and  _93
REMARK   44  A    between atoms: _92  and  _95
REMARK   45  A    between atoms: _95  and  _96
REMARK   46  A    between atoms: _101  and  _103
REMARK   47  A    between atoms: _103  and  _104
REMARK   48  A    between atoms: _103  and  _106
REMARK   49  A    between atoms: _106  and  _107
REMARK   50  A    between atoms: _107  and  _108
REMARK   51  A    between atoms: _111  and  _113
REMARK   52  A    between atoms: _113  and  _114
REMARK   53  A    between atoms: _113  and  _116
REMARK   54  A    between atoms: _116  and  _117
REMARK   55  A    between atoms: _119  and  _121
REMARK   56  A    between atoms: _121  and  _122
REMARK   57  A    between atoms: _121  and  _124
REMARK   58  A    between atoms: _124  and  _125
REMARK   59  A    between atoms: _135  and  _137
REMARK   60  A    between atoms: _137  and  _138
REMARK   61  A    between atoms: _137  and  _140
REMARK   62  A    between atoms: _140  and  _141
REMARK   63  A    between atoms: _146  and  _148
REMARK   64  A    between atoms: _148  and  _149
REMARK   65  A    between atoms: _151  and  _153
REMARK   66  A    between atoms: _153  and  _154
REMARK   67  A    between atoms: _153  and  _156
REMARK   68  A    between atoms: _156  and  _157
REMARK   69  A    between atoms: _157  and  _158
REMARK   70  A    between atoms: _160  and  _162
REMARK   71  A    between atoms: _162  and  _163
REMARK   72  A    between atoms: _162  and  _165
REMARK   73  A    between atoms: _165  and  _166
REMARK   74  A    between atoms: _169  and  _171
REMARK   75  A    between atoms: _171  and  _172
REMARK   76  A    between atoms: _175  and  _177
REMARK   77  A    between atoms: _177  and  _178
REMARK   78  A    between atoms: _177  and  _180
REMARK   79  A    between atoms: _180  and  _181
REMARK   80  A    between atoms: _184  and  _186
REMARK   81  A    between atoms: _186  and  _187
REMARK   82  A    between atoms: _186  and  _189
REMARK   83  A    between atoms: _189  and  _190
REMARK   84  A    between atoms: _192  and  _194
REMARK   85  A    between atoms: _194  and  _195
REMARK   86  A    between atoms: _198  and  _200
REMARK   87  A    between atoms: _200  and  _201
REMARK   88  A    between atoms: _200  and  _203
REMARK   89  A    between atoms: _203  and  _205
REMARK   90  A    between atoms: _207  and  _209
REMARK   91  A    between atoms: _209  and  _210
REMARK   92  A    between atoms: _213  and  _215
REMARK   93  A    between atoms: _215  and  _216
REMARK   94  A    between atoms: _215  and  _218
REMARK   95  A    between atoms: _218  and  _219
REMARK   96  A    between atoms: _219  and  _220
REMARK   97  A    between atoms: _224  and  _225
REMARK   98  A    between atoms: _230  and  _232
REMARK   99  A    between atoms: _232  and  _233
REMARK  100  A    between atoms: _232  and  _235
REMARK  101  A    between atoms: _235  and  _236
REMARK  102  A    between atoms: _239  and  _241
REMARK  103  A    between atoms: _241  and  _242
REMARK  104  A    between atoms: _241  and  _244
REMARK  105  A    between atoms: _244  and  _245
REMARK  106  A    between atoms: _248  and  _250
REMARK  107  A    between atoms: _250  and  _251
REMARK  108  A    between atoms: _250  and  _253
REMARK  109  A    between atoms: _253  and  _254
REMARK  110  A    between atoms: _256  and  _258
REMARK  111  A    between atoms: _258  and  _259
REMARK  112  A    between atoms: _258  and  _261
REMARK  113  A    between atoms: _261  and  _262
REMARK  114  A    between atoms: _264  and  _266
REMARK  115  A    between atoms: _266  and  _267
REMARK  116  A    between atoms: _269  and  _271
REMARK  117  A    between atoms: _271  and  _272
REMARK  118  A    between atoms: _274  and  _276
REMARK  119  A    between atoms: _276  and  _277
REMARK  120  A    between atoms: _276  and  _279
REMARK  121  A    between atoms: _279  and  _280
REMARK  122  A    between atoms: _283  and  _285
REMARK  123  A    between atoms: _285  and  _286
REMARK  124  A    between atoms: _285  and  _288
REMARK  125  A    between atoms: _288  and  _289
REMARK  126  A    between atoms: _289  and  _290
REMARK  127  A    between atoms: _293  and  _295
REMARK  128  A    between atoms: _295  and  _296
REMARK  129  A    between atoms: _299  and  _301
REMARK  130  A    between atoms: _301  and  _302
REMARK  131  A    between atoms: _301  and  _304
REMARK  132  A    between atoms: _304  and  _305
REMARK  133  A    between atoms: _305  and  _306
REMARK  134  A    between atoms: _311  and  _313
REMARK  135  A    between atoms: _313  and  _314
REMARK  136  A    between atoms: _313  and  _316
REMARK  137  A    between atoms: _316  and  _317
REMARK  138  A    between atoms: _320  and  _322
REMARK  139  A    between atoms: _322  and  _323
REMARK  140  A    between atoms: _322  and  _325
REMARK  141  A    between atoms: _325  and  _326
REMARK  142  A    between atoms: _329  and  _331
REMARK  143  A    between atoms: _331  and  _332
REMARK  144  A    between atoms: _331  and  _334
REMARK  145  A    between atoms: _334  and  _335
REMARK  146  A    between atoms: _338  and  _340
REMARK  147  A    between atoms: _340  and  _341
REMARK  148  A    between atoms: _340  and  _343
REMARK  149  A    between atoms: _343  and  _344
REMARK  150  A    between atoms: _346  and  _348
REMARK  151  A    between atoms: _348  and  _349
REMARK  152  A    between atoms: _348  and  _351
REMARK  153  A    between atoms: _351  and  _352
REMARK  154  A    between atoms: _352  and  _353
REMARK  155  A    between atoms: _353  and  _354
REMARK  156  A    between atoms: _354  and  _355
REMARK  157  A    between atoms: _360  and  _361
REMARK  158  A    between atoms: _366  and  _368
REMARK  159  A    between atoms: _368  and  _369
REMARK  160  A    between atoms: _368  and  _371
REMARK  161  A    between atoms: _371  and  _372
REMARK  162  A    between atoms: _375  and  _377
REMARK  163  A    between atoms: _377  and  _378
REMARK  164  A    between atoms: _381  and  _383
REMARK  165  A    between atoms: _383  and  _384
REMARK  166  A    between atoms: _383  and  _386
REMARK  167  A    between atoms: _386  and  _387
REMARK  168  A    between atoms: _392  and  _394
REMARK  169  A    between atoms: _394  and  _395
REMARK  170  A    between atoms: _394  and  _397
REMARK  171  A    between atoms: _400  and  _402
REMARK  172  A    between atoms: _402  and  _403
REMARK  173  A    between atoms: _402  and  _405
REMARK  174  A    between atoms: _405  and  _406
REMARK  175  A    between atoms: _406  and  _407
REMARK  176  A    between atoms: _407  and  _408
REMARK  177  A    between atoms: _417  and  _419
REMARK  178  A    between atoms: _419  and  _420
REMARK  179  A    between atoms: _419  and  _422
REMARK  180  A    between atoms: _422  and  _423
REMARK  181  A    between atoms: _428  and  _430
REMARK  182  A    between atoms: _430  and  _431
REMARK  183  A    between atoms: _430  and  _433
REMARK  184  A    between atoms: _433  and  _434
REMARK  185  A    between atoms: _440  and  _442
REMARK  186  A    between atoms: _442  and  _443
REMARK  187  A    between atoms: _442  and  _445
REMARK  188  A    between atoms: _445  and  _446
REMARK  189  A    between atoms: _448  and  _450
REMARK  190  A    between atoms: _450  and  _451
REMARK  191  A    between atoms: _450  and  _453
REMARK  192  A    between atoms: _453  and  _454
REMARK  193  A    between atoms: _454  and  _455
REMARK  194  A    between atoms: _458  and  _460
REMARK  195  A    between atoms: _460  and  _461
REMARK  196  A    between atoms: _460  and  _463
REMARK  197  A    between atoms: _463  and  _464
REMARK  198  A    between atoms: _466  and  _468
REMARK  199  A    between atoms: _468  and  _469
REMARK  200  A    between atoms: _468  and  _471
REMARK  201  A    between atoms: _471  and  _472
REMARK  202  A    between atoms: _472  and  _473
REMARK  203  A    between atoms: _476  and  _478
REMARK  204  A    between atoms: _478  and  _479
REMARK  205  A    between atoms: _478  and  _481
REMARK  206  A    between atoms: _481  and  _482
REMARK  207  A    between atoms: _485  and  _487
REMARK  208  A    between atoms: _487  and  _488
REMARK  209  A    between atoms: _487  and  _490
REMARK  210  A    between atoms: _490  and  _491
REMARK  211  A    between atoms: _497  and  _499
REMARK  212  A    between atoms: _499  and  _500
REMARK  213  A    between atoms: _499  and  _502
REMARK  214  A    between atoms: _502  and  _503
REMARK  215  A    between atoms: _508  and  _509
REMARK  216  A    between atoms: _511  and  _513
REMARK  217  A    between atoms: _513  and  _514
REMARK  218  A    between atoms: _513  and  _516
REMARK  219  A    between atoms: _516  and  _517
REMARK  220  A    between atoms: _520  and  _522
REMARK  221  A    between atoms: _522  and  _523
REMARK  222  A    between atoms: _522  and  _525
REMARK  223  A    between atoms: _525  and  _526
REMARK  224  A    between atoms: _529  and  _531
REMARK  225  A    between atoms: _531  and  _532
REMARK  226  A    between atoms: _531  and  _534
REMARK  227  A    between atoms: _534  and  _535
REMARK  228  A    between atoms: _540  and  _542
REMARK  229  A    between atoms: _542  and  _543
REMARK  230  A    between atoms: _542  and  _545
REMARK                            x       y       z     vdW  Elec       q    Type
REMARK                         _______ _______ _______ _____ _____    ______ ____
ROOT
ATOM      1  CA  SER A   1      25.339  40.858  17.851  0.00  0.00    +0.163 C 
ENDROOT
BRANCH   1   2
ATOM      2  N   SER A   1      25.485  41.592  19.115  0.00  0.00    -0.237 NA
ATOM      3  H   SER A   1      25.710  42.607  19.093  0.00  0.00    +0.142 HD
ENDBRANCH   1   2
BRANCH   1   4
ATOM      4  C   SER A   1      26.545  40.696  16.965  0.00  0.00    +0.227 C 
ATOM      5  O   SER A   1      26.859  39.586  16.507  0.00  0.00    -0.287 OA
ENDBRANCH   1   4
BRANCH   1   6
ATOM      6  CB  SER A   1      24.128  41.360  17.049  0.00  0.00    +0.162 C 
BRANCH   6   7
ATOM      7  OG  SER A   1      23.056  41.745  17.905  0.00  0.00    -0.380 OA
ATOM      8  H   SER A   1      22.772  40.967  18.447  0.00  0.00    +0.211 HD
ENDBRANCH   6   7
ENDBRANCH   1   6
TORSDOF 4
REMARK  Name = ../refined-set-2016/1m0o/1m0o_pocket.pdb
REMARK  230 active torsions:
REMARK  status: ('A' for Active; 'I' for Inactive)
REMARK    1  A    between atoms: _1  and  _3
REMARK    2  A    between atoms: _3  and  _4
REMARK    3  A    between atoms: _3  and  _6
REMARK    4  A    between atoms: _6  and  _7
REMARK    5  A    between atoms: _10  and  _12
REMARK    6  A    between atoms: _12  and  _13
REMARK    7  A    between atoms: _15  and  _17
REMARK    8  A    between atoms: _17  and  _18
REMARK    9  A    between atoms: _17  and  _20
REMARK   10  A    between atoms: _20  and  _21
REMARK   11  A    between atoms: _21  and  _22
REMARK   12  A    between atoms: _27  and  _29
REMARK   13  A    between atoms: _29  and  _30
REMARK   14  A    between atoms: _29  and  _32
REMARK   15  A    between atoms: _32  and  _33
REMARK   16  A    between atoms: _33  and  _34
REMARK   17  A    between atoms: _36  and  _38
REMARK   18  A    between atoms: _38  and  _39
REMARK   19  A    between atoms: _38  and  _41
REMARK   20  A    between atoms: _41  and  _42
REMARK   21  A    between atoms: _44  and  _46
REMARK   22  A    between atoms: _46  and  _47
REMARK   23  A    between atoms: _46  and  _49
REMARK   24  A    between atoms: _49  and  _50
REMARK   25  A    between atoms: _52  and  _54
REMARK   26  A    between atoms: _54  and  _55
REMARK   27  A    between atoms: _54  and  _57
REMARK   28  A    between atoms: _57  and  _58
REMARK   29  A    between atoms: _61  and  _63
REMARK   30  A    between atoms: _63  and  _64
REMARK   31  A    between atoms: _66  and  _68
REMARK   32  A    between atoms: _68  and  _69
REMARK   33  A    between atoms: _72  and  _74
REMARK   34  A    between atoms: _74  and  _75
REMARK   35  A    between atoms: _74  and  _77
REMARK   36  A    between atoms: _77  and  _78
REMARK   37  A    between atoms: _78  and  _79
REMARK   38  A    between atoms: _82  and  _84
REMARK   39  A    between atoms: _84  and  _85
REMARK   40  A    between atoms: _84  and  _87
REMARK   41  A    between atoms: _87  and  _88
REMARK   42  A    between atoms: _90  and  _92
REMARK   43  A    between atoms: _92  and  _93
REMARK   44  A    between atoms: _92  and  _95
REMARK   45  A    between atoms: _95  and  _96
REMARK   46  A    between atoms: _101  and  _103
REMARK   47  A    between atoms: _103  and  _104
REMARK   48  A    between atoms: _103  and  _106
REMARK   49  A    between atoms: _106  and  _107
REMARK   50  A    between atoms: _107  and  _108
REMARK   51  A    between atoms: _111  and  _113
REMARK   52  A    between atoms: _113  and  _114
REMARK   53  A    between atoms: _113  and  _116
REMARK   54  A    between atoms: _116  and  _117
REMARK   55  A    between atoms: _119  and  _121
REMARK   56  A    between atoms: _121  and  _122
REMARK   57  A    between atoms: _121  and  _124
REMARK   58  A    between atoms: _124  and  _125
REMARK   59  A    between atoms: _135  and  _137
REMARK   60  A    between atoms: _137  and  _138
REMARK   61  A    between atoms: _137  and  _140
REMARK   62  A    between atoms: _140  and  _141
REMARK   63  A    between atoms: _146  and  _148
REMARK   64  A    between atoms: _148  and  _149
REMARK   65  A    between atoms: _151  and  _153
REMARK   66  A    between atoms: _153  and  _154
REMARK   67  A    between atoms: _153  and  _156
REMARK   68  A    between atoms: _156  and  _157
REMARK   69  A    between atoms: _157  and  _158
REMARK   70  A    between atoms: _160  and  _162
REMARK   71  A    between atoms: _162  and  _163
REMARK   72  A    between atoms: _162  and  _165
REMARK   73  A    between atoms: _165  and  _166
REMARK   74  A    between atoms: _169  and  _171
REMARK   75  A    between atoms: _171  and  _172
REMARK   76  A    between atoms: _175  and  _177
REMARK   77  A    between atoms: _177  and  _178
REMARK   78  A    between atoms: _177  and  _180
REMARK   79  A    between atoms: _180  and  _181
REMARK   80  A    between atoms: _184  and  _186
REMARK   81  A    between atoms: _186  and  _187
REMARK   82  A    between atoms: _186  and  _189
REMARK   83  A    between atoms: _189  and  _190
REMARK   84  A    between atoms: _192  and  _194
REMARK   85  A    between atoms: _194  and  _195
REMARK   86  A    between atoms: _198  and  _200
REMARK   87  A    between atoms: _200  and  _201
REMARK   88  A    between atoms: _200  and  _203
REMARK   89  A    between atoms: _203  and  _205
REMARK   90  A    between atoms: _207  and  _209
REMARK   91  A    between atoms: _209  and  _210
REMARK   92  A    between atoms: _213  and  _215
REMARK   93  A    between atoms: _215  and  _216
REMARK   94  A    between atoms: _215  and  _218
REMARK   95  A    between atoms: _218  and  _219
REMARK   96  A    between atoms: _219  and  _220
REMARK   97  A    between atoms: _224  and  _225
REMARK   98  A    between atoms: _230  and  _232
REMARK   99  A    between atoms: _232  and  _233
REMARK  100  A    between atoms: _232  and  _235
REMARK  101  A    between atoms: _235  and  _236
REMARK  102  A    between atoms: _239  and  _241
REMARK  103  A    between atoms: _241  and  _242
REMARK  104  A    between atoms: _241  and  _244
REMARK  105  A    between atoms: _244  and  _245
REMARK  106  A    between atoms: _248  and  _250
REMARK  107  A    between atoms: _250  and  _251
REMARK  108  A    between atoms: _250  and  _253
REMARK  109  A    between atoms: _253  and  _254
REMARK  110  A    between atoms: _256  and  _258
REMARK  111  A    between atoms: _258  and  _259
REMARK  112  A    between atoms: _258  and  _261
REMARK  113  A    between atoms: _261  and  _262
REMARK  114  A    between atoms: _264  and  _266
REMARK  115  A    between atoms: _266  and  _267
REMARK  116  A    between atoms: _269  and  _271
REMARK  117  A    between atoms: _271  and  _272
REMARK  118  A    between atoms: _274  and  _276
REMARK  119  A    between atoms: _276  and  _277
REMARK  120  A    between atoms: _276  and  _279
REMARK  121  A    between atoms: _279  and  _280
REMARK  122  A    between atoms: _283  and  _285
REMARK  123  A    between atoms: _285  and  _286
REMARK  124  A    between atoms: _285  and  _288
REMARK  125  A    between atoms: _288  and  _289
REMARK  126  A    between atoms: _289  and  _290
REMARK  127  A    between atoms: _293  and  _295
REMARK  128  A    between atoms: _295  and  _296
REMARK  129  A    between atoms: _299  and  _301
REMARK  130  A    between atoms: _301  and  _302
REMARK  131  A    between atoms: _301  and  _304
REMARK  132  A    between atoms: _304  and  _305
REMARK  133  A    between atoms: _305  and  _306
REMARK  134  A    between atoms: _311  and  _313
REMARK  135  A    between atoms: _313  and  _314
REMARK  136  A    between atoms: _313  and  _316
REMARK  137  A    between atoms: _316  and  _317
REMARK  138  A    between atoms: _320  and  _322
REMARK  139  A    between atoms: _322  and  _323
REMARK  140  A    between atoms: _322  and  _325
REMARK  141  A    between atoms: _325  and  _326
REMARK  142  A    between atoms: _329  and  _331
REMARK  143  A    between atoms: _331  and  _332
REMARK  144  A    between atoms: _331  and  _334
REMARK  145  A    between atoms: _334  and  _335
REMARK  146  A    between atoms: _338  and  _340
REMARK  147  A    between atoms: _340  and  _341
REMARK  148  A    between atoms: _340  and  _343
REMARK  149  A    between atoms: _343  and  _344
REMARK  150  A    between atoms: _346  and  _348
REMARK  151  A    between atoms: _348  and  _349
REMARK  152  A    between atoms: _348  and  _351
REMARK  153  A    between atoms: _351  and  _352
REMARK  154  A    between atoms: _352  and  _353
REMARK  155  A    between atoms: _353  and  _354
REMARK  156  A    between atoms: _354  and  _355
REMARK  157  A    between atoms: _360  and  _361
REMARK  158  A    between atoms: _366  and  _368
REMARK  159  A    between atoms: _368  and  _369
REMARK  160  A    between atoms: _368  and  _371
REMARK  161  A    between atoms: _371  and  _372
REMARK  162  A    between atoms: _375  and  _377
REMARK  163  A    between atoms: _377  and  _378
REMARK  164  A    between atoms: _381  and  _383
REMARK  165  A    between atoms: _383  and  _384
REMARK  166  A    between atoms: _383  and  _386
REMARK  167  A    between atoms: _386  and  _387
REMARK  168  A    between atoms: _392  and  _394
REMARK  169  A    between atoms: _394  and  _395
REMARK  170  A    between atoms: _394  and  _397
REMARK  171  A    between atoms: _400  and  _402
REMARK  172  A    between atoms: _402  and  _403
REMARK  173  A    between atoms: _402  and  _405
REMARK  174  A    between atoms: _405  and  _406
REMARK  175  A    between atoms: _406  and  _407
REMARK  176  A    between atoms: _407  and  _408
REMARK  177  A    between atoms: _417  and  _419
REMARK  178  A    between atoms: _419  and  _420
REMARK  179  A    between atoms: _419  and  _422
REMARK  180  A    between atoms: _422  and  _423
REMARK  181  A    between atoms: _428  and  _430
REMARK  182  A    between atoms: _430  and  _431
REMARK  183  A    between atoms: _430  and  _433
REMARK  184  A    between atoms: _433  and  _434
REMARK  185  A    between atoms: _440  and  _442
REMARK  186  A    between atoms: _442  and  _443
REMARK  187  A    between atoms: _442  and  _445
REMARK  188  A    between atoms: _445  and  _446
REMARK  189  A    between atoms: _448  and  _450
REMARK  190  A    between atoms: _450  and  _451
REMARK  191  A    between atoms: _450  and  _453
REMARK  192  A    between atoms: _453  and  _454
REMARK  193  A    between atoms: _454  and  _455
REMARK  194  A    between atoms: _458  and  _460
REMARK  195  A    between atoms: _460  and  _461
REMARK  196  A    between atoms: _460  and  _463
REMARK  197  A    between atoms: _463  and  _464
REMARK  198  A    between atoms: _466  and  _468
REMARK  199  A    between atoms: _468  and  _469
REMARK  200  A    between atoms: _468  and  _471
REMARK  201  A    between atoms: _471  and  _472
REMARK  202  A    between atoms: _472  and  _473
REMARK  203  A    between atoms: _476  and  _478
REMARK  204  A    between atoms: _478  and  _479
REMARK  205  A    between atoms: _478  and  _481
REMARK  206  A    between atoms: _481  and  _482
REMARK  207  A    between atoms: _485  and  _487
REMARK  208  A    between atoms: _487  and  _488
REMARK  209  A    between atoms: _487  and  _490
REMARK  210  A    between atoms: _490  and  _491
REMARK  211  A    between atoms: _497  and  _499
REMARK  212  A    between atoms: _499  and  _500
REMARK  213  A    between atoms: _499  and  _502
REMARK  214  A    between atoms: _502  and  _503
REMARK  215  A    between atoms: _508  and  _509
REMARK  216  A    between atoms: _511  and  _513
REMARK  217  A    between atoms: _513  and  _514
REMARK  218  A    between atoms: _513  and  _516
REMARK  219  A    between atoms: _516  and  _517
REMARK  220  A    between atoms: _520  and  _522
REMARK  221  A    between atoms: _522  and  _523
REMARK  222  A    between atoms: _522  and  _525
REMARK  223  A    between atoms: _525  and  _526
REMARK  224  A    between atoms: _529  and  _531
REMARK  225  A    between atoms: _531  and  _532
REMARK  226  A    between atoms: _531  and  _534
REMARK  227  A    between atoms: _534  and  _535
REMARK  228  A    between atoms: _540  and  _542
REMARK  229  A    between atoms: _542  and  _543
REMARK  230  A    between atoms: _542  and  _545
REMARK                            x       y       z     vdW  Elec       q    Type
REMARK                         _______ _______ _______ _____ _____    ______ ____
ROOT
ATOM      1  CA  GLU A   1      29.514  46.217  17.650  0.00  0.00    +0.134 C 
ENDROOT
BRANCH   1   2
ATOM      2  N   GLU A   1      30.400  45.691  16.623  0.00  0.00    -0.239 NA
ATOM      3  H   GLU A   1      30.062  44.908  16.028  0.00  0.00    +0.142 HD
ENDBRANCH   1   2
BRANCH   1   4
ATOM      4  C   GLU A   1      30.178  45.988  19.010  0.00  0.00    +0.224 C 
ATOM      5  O   GLU A   1      30.274  46.891  19.848  0.00  0.00    -0.287 OA
ENDBRANCH   1   4
BRANCH   1   6
ATOM      6  CB  GLU A   1      28.208  45.447  17.560  0.00  0.00    +0.037 C 
BRANCH   6   7
ATOM      7  CG  GLU A   1      27.049  46.019  18.272  0.00  0.00    +0.116 C 
BRANCH   7   8
ATOM      8  CD  GLU A   1      25.783  45.157  18.160  0.00  0.00    +0.365 C 
ATOM      9  OE2 GLU A   1      24.696  45.733  18.305  0.00  0.00    -0.246 OA
ATOM     10  OE1 GLU A   1      25.882  43.888  18.020  0.00  0.00    -0.246 OA
ENDBRANCH   7   8
ENDBRANCH   6   7
ENDBRANCH   1   6
TORSDOF 5
REMARK  Name = ../refined-set-2016/1m0o/1m0o_pocket.pdb
REMARK  230 active torsions:
REMARK  status: ('A' for Active; 'I' for Inactive)
REMARK    1  A    between atoms: _1  and  _3
REMARK    2  A    between atoms: _3  and  _4
REMARK    3  A    between atoms: _3  and  _6
REMARK    4  A    between atoms: _6  and  _7
REMARK    5  A    between atoms: _10  and  _12
REMARK    6  A    between atoms: _12  and  _13
REMARK    7  A    between atoms: _15  and  _17
REMARK    8  A    between atoms: _17  and  _18
REMARK    9  A    between atoms: _17  and  _20
REMARK   10  A    between atoms: _20  and  _21
REMARK   11  A    between atoms: _21  and  _22
REMARK   12  A    between atoms: _27  and  _29
REMARK   13  A    between atoms: _29  and  _30
REMARK   14  A    between atoms: _29  and  _32
REMARK   15  A    between atoms: _32  and  _33
REMARK   16  A    between atoms: _33  and  _34
REMARK   17  A    between atoms: _36  and  _38
REMARK   18  A    between atoms: _38  and  _39
REMARK   19  A    between atoms: _38  and  _41
REMARK   20  A    between atoms: _41  and  _42
REMARK   21  A    between atoms: _44  and  _46
REMARK   22  A    between atoms: _46  and  _47
REMARK   23  A    between atoms: _46  and  _49
REMARK   24  A    between atoms: _49  and  _50
REMARK   25  A    between atoms: _52  and  _54
REMARK   26  A    between atoms: _54  and  _55
REMARK   27  A    between atoms: _54  and  _57
REMARK   28  A    between atoms: _57  and  _58
REMARK   29  A    between atoms: _61  and  _63
REMARK   30  A    between atoms: _63  and  _64
REMARK   31  A    between atoms: _66  and  _68
REMARK   32  A    between atoms: _68  and  _69
REMARK   33  A    between atoms: _72  and  _74
REMARK   34  A    between atoms: _74  and  _75
REMARK   35  A    between atoms: _74  and  _77
REMARK   36  A    between atoms: _77  and  _78
REMARK   37  A    between atoms: _78  and  _79
REMARK   38  A    between atoms: _82  and  _84
REMARK   39  A    between atoms: _84  and  _85
REMARK   40  A    between atoms: _84  and  _87
REMARK   41  A    between atoms: _87  and  _88
REMARK   42  A    between atoms: _90  and  _92
REMARK   43  A    between atoms: _92  and  _93
REMARK   44  A    between atoms: _92  and  _95
REMARK   45  A    between atoms: _95  and  _96
REMARK   46  A    between atoms: _101  and  _103
REMARK   47  A    between atoms: _103  and  _104
REMARK   48  A    between atoms: _103  and  _106
REMARK   49  A    between atoms: _106  and  _107
REMARK   50  A    between atoms: _107  and  _108
REMARK   51  A    between atoms: _111  and  _113
REMARK   52  A    between atoms: _113  and  _114
REMARK   53  A    between atoms: _113  and  _116
REMARK   54  A    between atoms: _116  and  _117
REMARK   55  A    between atoms: _119  and  _121
REMARK   56  A    between atoms: _121  and  _122
REMARK   57  A    between atoms: _121  and  _124
REMARK   58  A    between atoms: _124  and  _125
REMARK   59  A    between atoms: _135  and  _137
REMARK   60  A    between atoms: _137  and  _138
REMARK   61  A    between atoms: _137  and  _140
REMARK   62  A    between atoms: _140  and  _141
REMARK   63  A    between atoms: _146  and  _148
REMARK   64  A    between atoms: _148  and  _149
REMARK   65  A    between atoms: _151  and  _153
REMARK   66  A    between atoms: _153  and  _154
REMARK   67  A    between atoms: _153  and  _156
REMARK   68  A    between atoms: _156  and  _157
REMARK   69  A    between atoms: _157  and  _158
REMARK   70  A    between atoms: _160  and  _162
REMARK   71  A    between atoms: _162  and  _163
REMARK   72  A    between atoms: _162  and  _165
REMARK   73  A    between atoms: _165  and  _166
REMARK   74  A    between atoms: _169  and  _171
REMARK   75  A    between atoms: _171  and  _172
REMARK   76  A    between atoms: _175  and  _177
REMARK   77  A    between atoms: _177  and  _178
REMARK   78  A    between atoms: _177  and  _180
REMARK   79  A    between atoms: _180  and  _181
REMARK   80  A    between atoms: _184  and  _186
REMARK   81  A    between atoms: _186  and  _187
REMARK   82  A    between atoms: _186  and  _189
REMARK   83  A    between atoms: _189  and  _190
REMARK   84  A    between atoms: _192  and  _194
REMARK   85  A    between atoms: _194  and  _195
REMARK   86  A    between atoms: _198  and  _200
REMARK   87  A    between atoms: _200  and  _201
REMARK   88  A    between atoms: _200  and  _203
REMARK   89  A    between atoms: _203  and  _205
REMARK   90  A    between atoms: _207  and  _209
REMARK   91  A    between atoms: _209  and  _210
REMARK   92  A    between atoms: _213  and  _215
REMARK   93  A    between atoms: _215  and  _216
REMARK   94  A    between atoms: _215  and  _218
REMARK   95  A    between atoms: _218  and  _219
REMARK   96  A    between atoms: _219  and  _220
REMARK   97  A    between atoms: _224  and  _225
REMARK   98  A    between atoms: _230  and  _232
REMARK   99  A    between atoms: _232  and  _233
REMARK  100  A    between atoms: _232  and  _235
REMARK  101  A    between atoms: _235  and  _236
REMARK  102  A    between atoms: _239  and  _241
REMARK  103  A    between atoms: _241  and  _242
REMARK  104  A    between atoms: _241  and  _244
REMARK  105  A    between atoms: _244  and  _245
REMARK  106  A    between atoms: _248  and  _250
REMARK  107  A    between atoms: _250  and  _251
REMARK  108  A    between atoms: _250  and  _253
REMARK  109  A    between atoms: _253  and  _254
REMARK  110  A    between atoms: _256  and  _258
REMARK  111  A    between atoms: _258  and  _259
REMARK  112  A    between atoms: _258  and  _261
REMARK  113  A    between atoms: _261  and  _262
REMARK  114  A    between atoms: _264  and  _266
REMARK  115  A    between atoms: _266  and  _267
REMARK  116  A    between atoms: _269  and  _271
REMARK  117  A    between atoms: _271  and  _272
REMARK  118  A    between atoms: _274  and  _276
REMARK  119  A    between atoms: _276  and  _277
REMARK  120  A    between atoms: _276  and  _279
REMARK  121  A    between atoms: _279  and  _280
REMARK  122  A    between atoms: _283  and  _285
REMARK  123  A    between atoms: _285  and  _286
REMARK  124  A    between atoms: _285  and  _288
REMARK  125  A    between atoms: _288  and  _289
REMARK  126  A    between atoms: _289  and  _290
REMARK  127  A    between atoms: _293  and  _295
REMARK  128  A    between atoms: _295  and  _296
REMARK  129  A    between atoms: _299  and  _301
REMARK  130  A    between atoms: _301  and  _302
REMARK  131  A    between atoms: _301  and  _304
REMARK  132  A    between atoms: _304  and  _305
REMARK  133  A    between atoms: _305  and  _306
REMARK  134  A    between atoms: _311  and  _313
REMARK  135  A    between atoms: _313  and  _314
REMARK  136  A    between atoms: _313  and  _316
REMARK  137  A    between atoms: _316  and  _317
REMARK  138  A    between atoms: _320  and  _322
REMARK  139  A    between atoms: _322  and  _323
REMARK  140  A    between atoms: _322  and  _325
REMARK  141  A    between atoms: _325  and  _326
REMARK  142  A    between atoms: _329  and  _331
REMARK  143  A    between atoms: _331  and  _332
REMARK  144  A    between atoms: _331  and  _334
REMARK  145  A    between atoms: _334  and  _335
REMARK  146  A    between atoms: _338  and  _340
REMARK  147  A    between atoms: _340  and  _341
REMARK  148  A    between atoms: _340  and  _343
REMARK  149  A    between atoms: _343  and  _344
REMARK  150  A    between atoms: _346  and  _348
REMARK  151  A    between atoms: _348  and  _349
REMARK  152  A    between atoms: _348  and  _351
REMARK  153  A    between atoms: _351  and  _352
REMARK  154  A    between atoms: _352  and  _353
REMARK  155  A    between atoms: _353  and  _354
REMARK  156  A    between atoms: _354  and  _355
REMARK  157  A    between atoms: _360  and  _361
REMARK  158  A    between atoms: _366  and  _368
REMARK  159  A    between atoms: _368  and  _369
REMARK  160  A    between atoms: _368  and  _371
REMARK  161  A    between atoms: _371  and  _372
REMARK  162  A    between atoms: _375  and  _377
REMARK  163  A    between atoms: _377  and  _378
REMARK  164  A    between atoms: _381  and  _383
REMARK  165  A    between atoms: _383  and  _384
REMARK  166  A    between atoms: _383  and  _386
REMARK  167  A    between atoms: _386  and  _387
REMARK  168  A    between atoms: _392  and  _394
REMARK  169  A    between atoms: _394  and  _395
REMARK  170  A    between atoms: _394  and  _397
REMARK  171  A    between atoms: _400  and  _402
REMARK  172  A    between atoms: _402  and  _403
REMARK  173  A    between atoms: _402  and  _405
REMARK  174  A    between atoms: _405  and  _406
REMARK  175  A    between atoms: _406  and  _407
REMARK  176  A    between atoms: _407  and  _408
REMARK  177  A    between atoms: _417  and  _419
REMARK  178  A    between atoms: _419  and  _420
REMARK  179  A    between atoms: _419  and  _422
REMARK  180  A    between atoms: _422  and  _423
REMARK  181  A    between atoms: _428  and  _430
REMARK  182  A    between atoms: _430  and  _431
REMARK  183  A    between atoms: _430  and  _433
REMARK  184  A    between atoms: _433  and  _434
REMARK  185  A    between atoms: _440  and  _442
REMARK  186  A    between atoms: _442  and  _443
REMARK  187  A    between atoms: _442  and  _445
REMARK  188  A    between atoms: _445  and  _446
REMARK  189  A    between atoms: _448  and  _450
REMARK  190  A    between atoms: _450  and  _451
REMARK  191  A    between atoms: _450  and  _453
REMARK  192  A    between atoms: _453  and  _454
REMARK  193  A    between atoms: _454  and  _455
REMARK  194  A    between atoms: _458  and  _460
REMARK  195  A    between atoms: _460  and  _461
REMARK  196  A    between atoms: _460  and  _463
REMARK  197  A    between atoms: _463  and  _464
REMARK  198  A    between atoms: _466  and  _468
REMARK  199  A    between atoms: _468  and  _469
REMARK  200  A    between atoms: _468  and  _471
REMARK  201  A    between atoms: _471  and  _472
REMARK  202  A    between atoms: _472  and  _473
REMARK  203  A    between atoms: _476  and  _478
REMARK  204  A    between atoms: _478  and  _479
REMARK  205  A    between atoms: _478  and  _481
REMARK  206  A    between atoms: _481  and  _482
REMARK  207  A    between atoms: _485  and  _487
REMARK  208  A    between atoms: _487  and  _488
REMARK  209  A    between atoms: _487  and  _490
REMARK  210  A    between atoms: _490  and  _491
REMARK  211  A    between atoms: _497  and  _499
REMARK  212  A    between atoms: _499  and  _500
REMARK  213  A    between atoms: _499  and  _502
REMARK  214  A    between atoms: _502  and  _503
REMARK  215  A    between atoms: _508  and  _509
REMARK  216  A    between atoms: _511  and  _513
REMARK  217  A    between atoms: _513  and  _514
REMARK  218  A    between atoms: _513  and  _516
REMARK  219  A    between atoms: _516  and  _517
REMARK  220  A    between atoms: _520  and  _522
REMARK  221  A    between atoms: _522  and  _523
REMARK  222  A    between atoms: _522  and  _525
REMARK  223  A    between atoms: _525  and  _526
REMARK  224  A    between atoms: _529  and  _531
REMARK  225  A    between atoms: _531  and  _532
REMARK  226  A    between atoms: _531  and  _534
REMARK  227  A    between atoms: _534  and  _535
REMARK  228  A    between atoms: _540  and  _542
REMARK  229  A    between atoms: _542  and  _543
REMARK  230  A    between atoms: _542  and  _545
REMARK                            x       y       z     vdW  Elec       q    Type
REMARK                         _______ _______ _______ _____ _____    ______ ____
ROOT
ATOM      1  C   TYR A   3      20.820  49.759  22.839  0.00  0.00    +0.241 C 
ATOM      2  N   THR A   4      20.675  48.491  22.507  0.00  0.00    -0.295 N 
ATOM      3  H   THR A   4      20.787  47.770  23.248  0.00  0.00    +0.150 HD
ATOM      4  O   TYR A   3      20.704  50.672  22.041  0.00  0.00    -0.273 OA
ENDROOT
BRANCH   2   5
ATOM      5  CA  THR A   4      20.365  48.050  21.151  0.00  0.00    +0.176 C 
BRANCH   5   6
ATOM      6  C   THR A   4      19.148  47.195  21.118  0.00  0.00    +0.243 C 
ATOM      7  O   THR A   4      18.571  46.824  22.159  0.00  0.00    -0.273 OA
ATOM      8  N   THR A   5      18.765  46.848  19.920  0.00  0.00    -0.295 N 
ATOM      9  H   THR A   5      19.306  47.175  19.094  0.00  0.00    +0.150 HD
BRANCH   8  10
ATOM     10  CA  THR A   5      17.600  46.016  19.726  0.00  0.00    +0.176 C 
BRANCH  10  11
ATOM     11  C   THR A   5      17.841  44.610  20.194  0.00  0.00    +0.243 C 
ATOM     12  O   THR A   5      16.960  43.993  20.730  0.00  0.00    -0.273 OA
ATOM     13  N   HIS A   6      19.025  44.084  19.929  0.00  0.00    -0.297 N 
ATOM     14  H   HIS A   6      19.794  44.664  19.537  0.00  0.00    +0.150 HD
BRANCH  13  15
ATOM     15  CA  HIS A   6      19.213  42.691  20.199  0.00  0.00    +0.155 C 
BRANCH  15  16
ATOM     16  C   HIS A   6      20.100  42.387  21.352  0.00  0.00    +0.241 C 
ATOM     17  N   VAL A   7      20.533  43.407  22.067  0.00  0.00    -0.298 N 
ATOM     18  H   VAL A   7      20.302  44.385  21.799  0.00  0.00    +0.150 HD
ATOM     19  O   HIS A   6      20.427  41.239  21.583  0.00  0.00    -0.273 OA
BRANCH  17  20
ATOM     20  CA  VAL A   7      21.332  43.128  23.224  0.00  0.00    +0.137 C 
BRANCH  20  21
ATOM     21  CB  VAL A   7      21.682  44.418  24.003  0.00  0.00    +0.026 C 
ATOM     22  CG2 VAL A   7      22.657  44.108  25.172  0.00  0.00    +0.002 C 
ATOM     23  CG1 VAL A   7      20.374  45.153  24.495  0.00  0.00    +0.002 C 
ENDBRANCH  20  21
BRANCH  20  24
ATOM     24  C   VAL A   7      20.455  42.212  24.108  0.00  0.00    +0.227 C 
ATOM     25  O   VAL A   7      19.233  42.368  24.190  0.00  0.00    -0.286 OA
ENDBRANCH  20  24
ENDBRANCH  17  20
ENDBRANCH  15  16
BRANCH  15  26
ATOM     26  CB  HIS A   6      19.744  42.016  18.876  0.00  0.00    +0.076 C 
BRANCH  26  27
ATOM     27  CG  HIS A   6      18.802  42.130  17.719  0.00  0.00    +0.082 A 
ATOM     28  ND1 HIS A   6      17.629  41.410  17.649  0.00  0.00    -0.227 NA
ATOM     29  CE1 HIS A   6      17.003  41.684  16.507  0.00  0.00    +0.199 A 
ATOM     30  NE2 HIS A   6      17.707  42.603  15.863  0.00  0.00    -0.221 NA
ATOM     31  CD2 HIS A   6      18.839  42.898  16.599  0.00  0.00    +0.115 A 
ENDBRANCH  26  27
ENDBRANCH  15  26
ENDBRANCH  13  15
ENDBRANCH  10  11
BRANCH  10  32
ATOM     32  CB  THR A   5      17.241  45.935  18.199  0.00  0.00    +0.137 C 
ATOM     33  CG2 THR A   5      15.943  45.138  18.004  0.00  0.00    +0.034 C 
BRANCH  32  34
ATOM     34  OG1 THR A   5      17.061  47.255  17.688  0.00  0.00    -0.382 OA
ATOM     35  HG1 THR A   5      17.898  47.770  17.806  0.00  0.00    +0.210 HD
ENDBRANCH  32  34
ENDBRANCH  10  32
ENDBRANCH   8  10
ENDBRANCH   5   6
BRANCH   5  36
ATOM     36  CB  THR A   4      21.544  47.262  20.484  0.00  0.00    +0.137 C 
ATOM     37  CG2 THR A   4      22.890  47.950  20.811  0.00  0.00    +0.034 C 
BRANCH  36  38
ATOM     38  OG1 THR A   4      21.532  45.873  20.907  0.00  0.00    -0.382 OA
ATOM     39  HG1 THR A   4      22.282  45.392  20.476  0.00  0.00    +0.210 HD
ENDBRANCH  36  38
ENDBRANCH   5  36
ENDBRANCH   2   5
BRANCH   1  40
ATOM     40  CA  TYR A   3      21.194  50.023  24.313  0.00  0.00    +0.153 C 
BRANCH  40  43
ATOM     41  C   PHE A   2      23.597  50.026  24.701  0.00  0.00    +0.241 C 
ATOM     42  O   PHE A   2      23.616  48.838  24.860  0.00  0.00    -0.273 OA
ATOM     43  N   TYR A   3      22.498  50.675  24.415  0.00  0.00    -0.297 N 
ATOM     44  H   TYR A   3      22.555  51.701  24.253  0.00  0.00    +0.150 HD
BRANCH  41  45
ATOM     45  CA  PHE A   2      24.811  50.866  24.946  0.00  0.00    +0.153 C 
BRANCH  45  47
ATOM     46  C   LEU A   1      25.248  52.600  26.474  0.00  0.00    +0.238 C 
ATOM     47  N   PHE A   2      24.600  51.515  26.197  0.00  0.00    -0.297 N 
ATOM     48  H   PHE A   2      23.928  51.118  26.884  0.00  0.00    +0.150 HD
ATOM     49  O   LEU A   1      26.125  52.989  25.797  0.00  0.00    -0.274 OA
BRANCH  46  50
ATOM     50  CA  LEU A   1      24.857  53.333  27.704  0.00  0.00    +0.145 C 
BRANCH  50  51
ATOM     51  N   LEU A   1      26.016  53.688  28.474  0.00  0.00    -0.238 NA
ATOM     52  H   LEU A   1      26.841  54.112  28.004  0.00  0.00    +0.142 HD
ENDBRANCH  50  51
BRANCH  50  53
ATOM     53  CB  LEU A   1      24.192  54.607  27.239  0.00  0.00    +0.026 C 
BRANCH  53  54
ATOM     54  CG  LEU A   1      23.026  54.585  26.250  0.00  0.00    +0.002 C 
ATOM     55  CD2 LEU A   1      21.808  54.113  26.991  0.00  0.00    +0.000 C 
ATOM     56  CD1 LEU A   1      22.762  55.981  25.612  0.00  0.00    +0.000 C 
ENDBRANCH  53  54
ENDBRANCH  50  53
ENDBRANCH  46  50
ENDBRANCH  45  47
BRANCH  45  57
ATOM     57  CB  PHE A   2      26.054  50.015  24.955  0.00  0.00    +0.055 C 
BRANCH  57  58
ATOM     58  CG  PHE A   2      26.590  49.768  23.566  0.00  0.00    -0.020 A 
ATOM     59  CD2 PHE A   2      27.489  50.692  22.976  0.00  0.00    -0.004 A 
ATOM     60  CE2 PHE A   2      27.989  50.510  21.646  0.00  0.00    -0.000 A 
ATOM     61  CZ  PHE A   2      27.574  49.404  20.872  0.00  0.00    -0.000 A 
ATOM     62  CE1 PHE A   2      26.609  48.456  21.462  0.00  0.00    -0.000 A 
ATOM     63  CD1 PHE A   2      26.101  48.701  22.791  0.00  0.00    -0.004 A 
ENDBRANCH  57  58
ENDBRANCH  45  57
ENDBRANCH  41  45
ENDBRANCH  40  43
BRANCH  40  64
ATOM     64  CB  TYR A   3      20.188  50.971  24.970  0.00  0.00    +0.055 C 
BRANCH  64  65
ATOM     65  CG  TYR A   3      18.843  50.361  25.302  0.00  0.00    -0.020 A 
ATOM     66  CD2 TYR A   3      18.582  49.871  26.622  0.00  0.00    -0.001 A 
ATOM     67  CE2 TYR A   3      17.307  49.295  26.945  0.00  0.00    +0.036 A 
ATOM     68  CZ  TYR A   3      16.299  49.305  25.961  0.00  0.00    +0.134 A 
ATOM     69  CE1 TYR A   3      16.527  49.831  24.668  0.00  0.00    +0.036 A 
ATOM     70  CD1 TYR A   3      17.778  50.355  24.345  0.00  0.00    -0.001 A 
BRANCH  68  71
ATOM     71  OH  TYR A   3      15.098  48.777  26.265  0.00  0.00    -0.506 OA
ATOM     72  HH  TYR A   3      14.708  49.267  27.032  0.00  0.00    +0.292 HD
ENDBRANCH  68  71
ENDBRANCH  64  65
ENDBRANCH  40  64
ENDBRANCH   1  40
TORSDOF 28
REMARK  Name = ../refined-set-2016/1m0o/1m0o_pocket.pdb
REMARK  230 active torsions:
REMARK  status: ('A' for Active; 'I' for Inactive)
REMARK    1  A    between atoms: _1  and  _3
REMARK    2  A    between atoms: _3  and  _4
REMARK    3  A    between atoms: _3  and  _6
REMARK    4  A    between atoms: _6  and  _7
REMARK    5  A    between atoms: _10  and  _12
REMARK    6  A    between atoms: _12  and  _13
REMARK    7  A    between atoms: _15  and  _17
REMARK    8  A    between atoms: _17  and  _18
REMARK    9  A    between atoms: _17  and  _20
REMARK   10  A    between atoms: _20  and  _21
REMARK   11  A    between atoms: _21  and  _22
REMARK   12  A    between atoms: _27  and  _29
REMARK   13  A    between atoms: _29  and  _30
REMARK   14  A    between atoms: _29  and  _32
REMARK   15  A    between atoms: _32  and  _33
REMARK   16  A    between atoms: _33  and  _34
REMARK   17  A    between atoms: _36  and  _38
REMARK   18  A    between atoms: _38  and  _39
REMARK   19  A    between atoms: _38  and  _41
REMARK   20  A    between atoms: _41  and  _42
REMARK   21  A    between atoms: _44  and  _46
REMARK   22  A    between atoms: _46  and  _47
REMARK   23  A    between atoms: _46  and  _49
REMARK   24  A    between atoms: _49  and  _50
REMARK   25  A    between atoms: _52  and  _54
REMARK   26  A    between atoms: _54  and  _55
REMARK   27  A    between atoms: _54  and  _57
REMARK   28  A    between atoms: _57  and  _58
REMARK   29  A    between atoms: _61  and  _63
REMARK   30  A    between atoms: _63  and  _64
REMARK   31  A    between atoms: _66  and  _68
REMARK   32  A    between atoms: _68  and  _69
REMARK   33  A    between atoms: _72  and  _74
REMARK   34  A    between atoms: _74  and  _75
REMARK   35  A    between atoms: _74  and  _77
REMARK   36  A    between atoms: _77  and  _78
REMARK   37  A    between atoms: _78  and  _79
REMARK   38  A    between atoms: _82  and  _84
REMARK   39  A    between atoms: _84  and  _85
REMARK   40  A    between atoms: _84  and  _87
REMARK   41  A    between atoms: _87  and  _88
REMARK   42  A    between atoms: _90  and  _92
REMARK   43  A    between atoms: _92  and  _93
REMARK   44  A    between atoms: _92  and  _95
REMARK   45  A    between atoms: _95  and  _96
REMARK   46  A    between atoms: _101  and  _103
REMARK   47  A    between atoms: _103  and  _104
REMARK   48  A    between atoms: _103  and  _106
REMARK   49  A    between atoms: _106  and  _107
REMARK   50  A    between atoms: _107  and  _108
REMARK   51  A    between atoms: _111  and  _113
REMARK   52  A    between atoms: _113  and  _114
REMARK   53  A    between atoms: _113  and  _116
REMARK   54  A    between atoms: _116  and  _117
REMARK   55  A    between atoms: _119  and  _121
REMARK   56  A    between atoms: _121  and  _122
REMARK   57  A    between atoms: _121  and  _124
REMARK   58  A    between atoms: _124  and  _125
REMARK   59  A    between atoms: _135  and  _137
REMARK   60  A    between atoms: _137  and  _138
REMARK   61  A    between atoms: _137  and  _140
REMARK   62  A    between atoms: _140  and  _141
REMARK   63  A    between atoms: _146  and  _148
REMARK   64  A    between atoms: _148  and  _149
REMARK   65  A    between atoms: _151  and  _153
REMARK   66  A    between atoms: _153  and  _154
REMARK   67  A    between atoms: _153  and  _156
REMARK   68  A    between atoms: _156  and  _157
REMARK   69  A    between atoms: _157  and  _158
REMARK   70  A    between atoms: _160  and  _162
REMARK   71  A    between atoms: _162  and  _163
REMARK   72  A    between atoms: _162  and  _165
REMARK   73  A    between atoms: _165  and  _166
REMARK   74  A    between atoms: _169  and  _171
REMARK   75  A    between atoms: _171  and  _172
REMARK   76  A    between atoms: _175  and  _177
REMARK   77  A    between atoms: _177  and  _178
REMARK   78  A    between atoms: _177  and  _180
REMARK   79  A    between atoms: _180  and  _181
REMARK   80  A    between atoms: _184  and  _186
REMARK   81  A    between atoms: _186  and  _187
REMARK   82  A    between atoms: _186  and  _189
REMARK   83  A    between atoms: _189  and  _190
REMARK   84  A    between atoms: _192  and  _194
REMARK   85  A    between atoms: _194  and  _195
REMARK   86  A    between atoms: _198  and  _200
REMARK   87  A    between atoms: _200  and  _201
REMARK   88  A    between atoms: _200  and  _203
REMARK   89  A    between atoms: _203  and  _205
REMARK   90  A    between atoms: _207  and  _209
REMARK   91  A    between atoms: _209  and  _210
REMARK   92  A    between atoms: _213  and  _215
REMARK   93  A    between atoms: _215  and  _216
REMARK   94  A    between atoms: _215  and  _218
REMARK   95  A    between atoms: _218  and  _219
REMARK   96  A    between atoms: _219  and  _220
REMARK   97  A    between atoms: _224  and  _225
REMARK   98  A    between atoms: _230  and  _232
REMARK   99  A    between atoms: _232  and  _233
REMARK  100  A    between atoms: _232  and  _235
REMARK  101  A    between atoms: _235  and  _236
REMARK  102  A    between atoms: _239  and  _241
REMARK  103  A    between atoms: _241  and  _242
REMARK  104  A    between atoms: _241  and  _244
REMARK  105  A    between atoms: _244  and  _245
REMARK  106  A    between atoms: _248  and  _250
REMARK  107  A    between atoms: _250  and  _251
REMARK  108  A    between atoms: _250  and  _253
REMARK  109  A    between atoms: _253  and  _254
REMARK  110  A    between atoms: _256  and  _258
REMARK  111  A    between atoms: _258  and  _259
REMARK  112  A    between atoms: _258  and  _261
REMARK  113  A    between atoms: _261  and  _262
REMARK  114  A    between atoms: _264  and  _266
REMARK  115  A    between atoms: _266  and  _267
REMARK  116  A    between atoms: _269  and  _271
REMARK  117  A    between atoms: _271  and  _272
REMARK  118  A    between atoms: _274  and  _276
REMARK  119  A    between atoms: _276  and  _277
REMARK  120  A    between atoms: _276  and  _279
REMARK  121  A    between atoms: _279  and  _280
REMARK  122  A    between atoms: _283  and  _285
REMARK  123  A    between atoms: _285  and  _286
REMARK  124  A    between atoms: _285  and  _288
REMARK  125  A    between atoms: _288  and  _289
REMARK  126  A    between atoms: _289  and  _290
REMARK  127  A    between atoms: _293  and  _295
REMARK  128  A    between atoms: _295  and  _296
REMARK  129  A    between atoms: _299  and  _301
REMARK  130  A    between atoms: _301  and  _302
REMARK  131  A    between atoms: _301  and  _304
REMARK  132  A    between atoms: _304  and  _305
REMARK  133  A    between atoms: _305  and  _306
REMARK  134  A    between atoms: _311  and  _313
REMARK  135  A    between atoms: _313  and  _314
REMARK  136  A    between atoms: _313  and  _316
REMARK  137  A    between atoms: _316  and  _317
REMARK  138  A    between atoms: _320  and  _322
REMARK  139  A    between atoms: _322  and  _323
REMARK  140  A    between atoms: _322  and  _325
REMARK  141  A    between atoms: _325  and  _326
REMARK  142  A    between atoms: _329  and  _331
REMARK  143  A    between atoms: _331  and  _332
REMARK  144  A    between atoms: _331  and  _334
REMARK  145  A    between atoms: _334  and  _335
REMARK  146  A    between atoms: _338  and  _340
REMARK  147  A    between atoms: _340  and  _341
REMARK  148  A    between atoms: _340  and  _343
REMARK  149  A    between atoms: _343  and  _344
REMARK  150  A    between atoms: _346  and  _348
REMARK  151  A    between atoms: _348  and  _349
REMARK  152  A    between atoms: _348  and  _351
REMARK  153  A    between atoms: _351  and  _352
REMARK  154  A    between atoms: _352  and  _353
REMARK  155  A    between atoms: _353  and  _354
REMARK  156  A    between atoms: _354  and  _355
REMARK  157  A    between atoms: _360  and  _361
REMARK  158  A    between atoms: _366  and  _368
REMARK  159  A    between atoms: _368  and  _369
REMARK  160  A    between atoms: _368  and  _371
REMARK  161  A    between atoms: _371  and  _372
REMARK  162  A    between atoms: _375  and  _377
REMARK  163  A    between atoms: _377  and  _378
REMARK  164  A    between atoms: _381  and  _383
REMARK  165  A    between atoms: _383  and  _384
REMARK  166  A    between atoms: _383  and  _386
REMARK  167  A    between atoms: _386  and  _387
REMARK  168  A    between atoms: _392  and  _394
REMARK  169  A    between atoms: _394  and  _395
REMARK  170  A    between atoms: _394  and  _397
REMARK  171  A    between atoms: _400  and  _402
REMARK  172  A    between atoms: _402  and  _403
REMARK  173  A    between atoms: _402  and  _405
REMARK  174  A    between atoms: _405  and  _406
REMARK  175  A    between atoms: _406  and  _407
REMARK  176  A    between atoms: _407  and  _408
REMARK  177  A    between atoms: _417  and  _419
REMARK  178  A    between atoms: _419  and  _420
REMARK  179  A    between atoms: _419  and  _422
REMARK  180  A    between atoms: _422  and  _423
REMARK  181  A    between atoms: _428  and  _430
REMARK  182  A    between atoms: _430  and  _431
REMARK  183  A    between atoms: _430  and  _433
REMARK  184  A    between atoms: _433  and  _434
REMARK  185  A    between atoms: _440  and  _442
REMARK  186  A    between atoms: _442  and  _443
REMARK  187  A    between atoms: _442  and  _445
REMARK  188  A    between atoms: _445  and  _446
REMARK  189  A    between atoms: _448  and  _450
REMARK  190  A    between atoms: _450  and  _451
REMARK  191  A    between atoms: _450  and  _453
REMARK  192  A    between atoms: _453  and  _454
REMARK  193  A    between atoms: _454  and  _455
REMARK  194  A    between atoms: _458  and  _460
REMARK  195  A    between atoms: _460  and  _461
REMARK  196  A    between atoms: _460  and  _463
REMARK  197  A    between atoms: _463  and  _464
REMARK  198  A    between atoms: _466  and  _468
REMARK  199  A    between atoms: _468  and  _469
REMARK  200  A    between atoms: _468  and  _471
REMARK  201  A    between atoms: _471  and  _472
REMARK  202  A    between atoms: _472  and  _473
REMARK  203  A    between atoms: _476  and  _478
REMARK  204  A    between atoms: _478  and  _479
REMARK  205  A    between atoms: _478  and  _481
REMARK  206  A    between atoms: _481  and  _482
REMARK  207  A    between atoms: _485  and  _487
REMARK  208  A    between atoms: _487  and  _488
REMARK  209  A    between atoms: _487  and  _490
REMARK  210  A    between atoms: _490  and  _491
REMARK  211  A    between atoms: _497  and  _499
REMARK  212  A    between atoms: _499  and  _500
REMARK  213  A    between atoms: _499  and  _502
REMARK  214  A    between atoms: _502  and  _503
REMARK  215  A    between atoms: _508  and  _509
REMARK  216  A    between atoms: _511  and  _513
REMARK  217  A    between atoms: _513  and  _514
REMARK  218  A    between atoms: _513  and  _516
REMARK  219  A    between atoms: _516  and  _517
REMARK  220  A    between atoms: _520  and  _522
REMARK  221  A    between atoms: _522  and  _523
REMARK  222  A    between atoms: _522  and  _525
REMARK  223  A    between atoms: _525  and  _526
REMARK  224  A    between atoms: _529  and  _531
REMARK  225  A    between atoms: _531  and  _532
REMARK  226  A    between atoms: _531  and  _534
REMARK  227  A    between atoms: _534  and  _535
REMARK  228  A    between atoms: _540  and  _542
REMARK  229  A    between atoms: _542  and  _543
REMARK  230  A    between atoms: _542  and  _545
REMARK                            x       y       z     vdW  Elec       q    Type
REMARK                         _______ _______ _______ _____ _____    ______ ____
ROOT
ATOM      1  O   HOH     1      14.306  56.253  17.278  0.00  0.00    +0.000 OA
ENDROOT
TORSDOF 0
REMARK  Name = ../refined-set-2016/1m0o/1m0o_pocket.pdb
REMARK  230 active torsions:
REMARK  status: ('A' for Active; 'I' for Inactive)
REMARK    1  A    between atoms: _1  and  _3
REMARK    2  A    between atoms: _3  and  _4
REMARK    3  A    between atoms: _3  and  _6
REMARK    4  A    between atoms: _6  and  _7
REMARK    5  A    between atoms: _10  and  _12
REMARK    6  A    between atoms: _12  and  _13
REMARK    7  A    between atoms: _15  and  _17
REMARK    8  A    between atoms: _17  and  _18
REMARK    9  A    between atoms: _17  and  _20
REMARK   10  A    between atoms: _20  and  _21
REMARK   11  A    between atoms: _21  and  _22
REMARK   12  A    between atoms: _27  and  _29
REMARK   13  A    between atoms: _29  and  _30
REMARK   14  A    between atoms: _29  and  _32
REMARK   15  A    between atoms: _32  and  _33
REMARK   16  A    between atoms: _33  and  _34
REMARK   17  A    between atoms: _36  and  _38
REMARK   18  A    between atoms: _38  and  _39
REMARK   19  A    between atoms: _38  and  _41
REMARK   20  A    between atoms: _41  and  _42
REMARK   21  A    between atoms: _44  and  _46
REMARK   22  A    between atoms: _46  and  _47
REMARK   23  A    between atoms: _46  and  _49
REMARK   24  A    between atoms: _49  and  _50
REMARK   25  A    between atoms: _52  and  _54
REMARK   26  A    between atoms: _54  and  _55
REMARK   27  A    between atoms: _54  and  _57
REMARK   28  A    between atoms: _57  and  _58
REMARK   29  A    between atoms: _61  and  _63
REMARK   30  A    between atoms: _63  and  _64
REMARK   31  A    between atoms: _66  and  _68
REMARK   32  A    between atoms: _68  and  _69
REMARK   33  A    between atoms: _72  and  _74
REMARK   34  A    between atoms: _74  and  _75
REMARK   35  A    between atoms: _74  and  _77
REMARK   36  A    between atoms: _77  and  _78
REMARK   37  A    between atoms: _78  and  _79
REMARK   38  A    between atoms: _82  and  _84
REMARK   39  A    between atoms: _84  and  _85
REMARK   40  A    between atoms: _84  and  _87
REMARK   41  A    between atoms: _87  and  _88
REMARK   42  A    between atoms: _90  and  _92
REMARK   43  A    between atoms: _92  and  _93
REMARK   44  A    between atoms: _92  and  _95
REMARK   45  A    between atoms: _95  and  _96
REMARK   46  A    between atoms: _101  and  _103
REMARK   47  A    between atoms: _103  and  _104
REMARK   48  A    between atoms: _103  and  _106
REMARK   49  A    between atoms: _106  and  _107
REMARK   50  A    between atoms: _107  and  _108
REMARK   51  A    between atoms: _111  and  _113
REMARK   52  A    between atoms: _113  and  _114
REMARK   53  A    between atoms: _113  and  _116
REMARK   54  A    between atoms: _116  and  _117
REMARK   55  A    between atoms: _119  and  _121
REMARK   56  A    between atoms: _121  and  _122
REMARK   57  A    between atoms: _121  and  _124
REMARK   58  A    between atoms: _124  and  _125
REMARK   59  A    between atoms: _135  and  _137
REMARK   60  A    between atoms: _137  and  _138
REMARK   61  A    between atoms: _137  and  _140
REMARK   62  A    between atoms: _140  and  _141
REMARK   63  A    between atoms: _146  and  _148
REMARK   64  A    between atoms: _148  and  _149
REMARK   65  A    between atoms: _151  and  _153
REMARK   66  A    between atoms: _153  and  _154
REMARK   67  A    between atoms: _153  and  _156
REMARK   68  A    between atoms: _156  and  _157
REMARK   69  A    between atoms: _157  and  _158
REMARK   70  A    between atoms: _160  and  _162
REMARK   71  A    between atoms: _162  and  _163
REMARK   72  A    between atoms: _162  and  _165
REMARK   73  A    between atoms: _165  and  _166
REMARK   74  A    between atoms: _169  and  _171
REMARK   75  A    between atoms: _171  and  _172
REMARK   76  A    between atoms: _175  and  _177
REMARK   77  A    between atoms: _177  and  _178
REMARK   78  A    between atoms: _177  and  _180
REMARK   79  A    between atoms: _180  and  _181
REMARK   80  A    between atoms: _184  and  _186
REMARK   81  A    between atoms: _186  and  _187
REMARK   82  A    between atoms: _186  and  _189
REMARK   83  A    between atoms: _189  and  _190
REMARK   84  A    between atoms: _192  and  _194
REMARK   85  A    between atoms: _194  and  _195
REMARK   86  A    between atoms: _198  and  _200
REMARK   87  A    between atoms: _200  and  _201
REMARK   88  A    between atoms: _200  and  _203
REMARK   89  A    between atoms: _203  and  _205
REMARK   90  A    between atoms: _207  and  _209
REMARK   91  A    between atoms: _209  and  _210
REMARK   92  A    between atoms: _213  and  _215
REMARK   93  A    between atoms: _215  and  _216
REMARK   94  A    between atoms: _215  and  _218
REMARK   95  A    between atoms: _218  and  _219
REMARK   96  A    between atoms: _219  and  _220
REMARK   97  A    between atoms: _224  and  _225
REMARK   98  A    between atoms: _230  and  _232
REMARK   99  A    between atoms: _232  and  _233
REMARK  100  A    between atoms: _232  and  _235
REMARK  101  A    between atoms: _235  and  _236
REMARK  102  A    between atoms: _239  and  _241
REMARK  103  A    between atoms: _241  and  _242
REMARK  104  A    between atoms: _241  and  _244
REMARK  105  A    between atoms: _244  and  _245
REMARK  106  A    between atoms: _248  and  _250
REMARK  107  A    between atoms: _250  and  _251
REMARK  108  A    between atoms: _250  and  _253
REMARK  109  A    between atoms: _253  and  _254
REMARK  110  A    between atoms: _256  and  _258
REMARK  111  A    between atoms: _258  and  _259
REMARK  112  A    between atoms: _258  and  _261
REMARK  113  A    between atoms: _261  and  _262
REMARK  114  A    between atoms: _264  and  _266
REMARK  115  A    between atoms: _266  and  _267
REMARK  116  A    between atoms: _269  and  _271
REMARK  117  A    between atoms: _271  and  _272
REMARK  118  A    between atoms: _274  and  _276
REMARK  119  A    between atoms: _276  and  _277
REMARK  120  A    between atoms: _276  and  _279
REMARK  121  A    between atoms: _279  and  _280
REMARK  122  A    between atoms: _283  and  _285
REMARK  123  A    between atoms: _285  and  _286
REMARK  124  A    between atoms: _285  and  _288
REMARK  125  A    between atoms: _288  and  _289
REMARK  126  A    between atoms: _289  and  _290
REMARK  127  A    between atoms: _293  and  _295
REMARK  128  A    between atoms: _295  and  _296
REMARK  129  A    between atoms: _299  and  _301
REMARK  130  A    between atoms: _301  and  _302
REMARK  131  A    between atoms: _301  and  _304
REMARK  132  A    between atoms: _304  and  _305
REMARK  133  A    between atoms: _305  and  _306
REMARK  134  A    between atoms: _311  and  _313
REMARK  135  A    between atoms: _313  and  _314
REMARK  136  A    between atoms: _313  and  _316
REMARK  137  A    between atoms: _316  and  _317
REMARK  138  A    between atoms: _320  and  _322
REMARK  139  A    between atoms: _322  and  _323
REMARK  140  A    between atoms: _322  and  _325
REMARK  141  A    between atoms: _325  and  _326
REMARK  142  A    between atoms: _329  and  _331
REMARK  143  A    between atoms: _331  and  _332
REMARK  144  A    between atoms: _331  and  _334
REMARK  145  A    between atoms: _334  and  _335
REMARK  146  A    between atoms: _338  and  _340
REMARK  147  A    between atoms: _340  and  _341
REMARK  148  A    between atoms: _340  and  _343
REMARK  149  A    between atoms: _343  and  _344
REMARK  150  A    between atoms: _346  and  _348
REMARK  151  A    between atoms: _348  and  _349
REMARK  152  A    between atoms: _348  and  _351
REMARK  153  A    between atoms: _351  and  _352
REMARK  154  A    between atoms: _352  and  _353
REMARK  155  A    between atoms: _353  and  _354
REMARK  156  A    between atoms: _354  and  _355
REMARK  157  A    between atoms: _360  and  _361
REMARK  158  A    between atoms: _366  and  _368
REMARK  159  A    between atoms: _368  and  _369
REMARK  160  A    between atoms: _368  and  _371
REMARK  161  A    between atoms: _371  and  _372
REMARK  162  A    between atoms: _375  and  _377
REMARK  163  A    between atoms: _377  and  _378
REMARK  164  A    between atoms: _381  and  _383
REMARK  165  A    between atoms: _383  and  _384
REMARK  166  A    between atoms: _383  and  _386
REMARK  167  A    between atoms: _386  and  _387
REMARK  168  A    between atoms: _392  and  _394
REMARK  169  A    between atoms: _394  and  _395
REMARK  170  A    between atoms: _394  and  _397
REMARK  171  A    between atoms: _400  and  _402
REMARK  172  A    between atoms: _402  and  _403
REMARK  173  A    between atoms: _402  and  _405
REMARK  174  A    between atoms: _405  and  _406
REMARK  175  A    between atoms: _406  and  _407
REMARK  176  A    between atoms: _407  and  _408
REMARK  177  A    between atoms: _417  and  _419
REMARK  178  A    between atoms: _419  and  _420
REMARK  179  A    between atoms: _419  and  _422
REMARK  180  A    between atoms: _422  and  _423
REMARK  181  A    between atoms: _428  and  _430
REMARK  182  A    between atoms: _430  and  _431
REMARK  183  A    between atoms: _430  and  _433
REMARK  184  A    between atoms: _433  and  _434
REMARK  185  A    between atoms: _440  and  _442
REMARK  186  A    between atoms: _442  and  _443
REMARK  187  A    between atoms: _442  and  _445
REMARK  188  A    between atoms: _445  and  _446
REMARK  189  A    between atoms: _448  and  _450
REMARK  190  A    between atoms: _450  and  _451
REMARK  191  A    between atoms: _450  and  _453
REMARK  192  A    between atoms: _453  and  _454
REMARK  193  A    between atoms: _454  and  _455
REMARK  194  A    between atoms: _458  and  _460
REMARK  195  A    between atoms: _460  and  _461
REMARK  196  A    between atoms: _460  and  _463
REMARK  197  A    between atoms: _463  and  _464
REMARK  198  A    between atoms: _466  and  _468
REMARK  199  A    between atoms: _468  and  _469
REMARK  200  A    between atoms: _468  and  _471
REMARK  201  A    between atoms: _471  and  _472
REMARK  202  A    between atoms: _472  and  _473
REMARK  203  A    between atoms: _476  and  _478
REMARK  204  A    between atoms: _478  and  _479
REMARK  205  A    between atoms: _478  and  _481
REMARK  206  A    between atoms: _481  and  _482
REMARK  207  A    between atoms: _485  and  _487
REMARK  208  A    between atoms: _487  and  _488
REMARK  209  A    between atoms: _487  and  _490
REMARK  210  A    between atoms: _490  and  _491
REMARK  211  A    between atoms: _497  and  _499
REMARK  212  A    between atoms: _499  and  _500
REMARK  213  A    between atoms: _499  and  _502
REMARK  214  A    between atoms: _502  and  _503
REMARK  215  A    between atoms: _508  and  _509
REMARK  216  A    between atoms: _511  and  _513
REMARK  217  A    between atoms: _513  and  _514
REMARK  218  A    between atoms: _513  and  _516
REMARK  219  A    between atoms: _516  and  _517
REMARK  220  A    between atoms: _520  and  _522
REMARK  221  A    between atoms: _522  and  _523
REMARK  222  A    between atoms: _522  and  _525
REMARK  223  A    between atoms: _525  and  _526
REMARK  224  A    between atoms: _529  and  _531
REMARK  225  A    between atoms: _531  and  _532
REMARK  226  A    between atoms: _531  and  _534
REMARK  227  A    between atoms: _534  and  _535
REMARK  228  A    between atoms: _540  and  _542
REMARK  229  A    between atoms: _542  and  _543
REMARK  230  A    between atoms: _542  and  _545
REMARK                            x       y       z     vdW  Elec       q    Type
REMARK                         _______ _______ _______ _____ _____    ______ ____
ROOT
ATOM      1  O   HOH     1      14.085  59.516  17.317  0.00  0.00    +0.000 OA
ENDROOT
TORSDOF 0
REMARK  Name = ../refined-set-2016/1m0o/1m0o_pocket.pdb
REMARK  230 active torsions:
REMARK  status: ('A' for Active; 'I' for Inactive)
REMARK    1  A    between atoms: _1  and  _3
REMARK    2  A    between atoms: _3  and  _4
REMARK    3  A    between atoms: _3  and  _6
REMARK    4  A    between atoms: _6  and  _7
REMARK    5  A    between atoms: _10  and  _12
REMARK    6  A    between atoms: _12  and  _13
REMARK    7  A    between atoms: _15  and  _17
REMARK    8  A    between atoms: _17  and  _18
REMARK    9  A    between atoms: _17  and  _20
REMARK   10  A    between atoms: _20  and  _21
REMARK   11  A    between atoms: _21  and  _22
REMARK   12  A    between atoms: _27  and  _29
REMARK   13  A    between atoms: _29  and  _30
REMARK   14  A    between atoms: _29  and  _32
REMARK   15  A    between atoms: _32  and  _33
REMARK   16  A    between atoms: _33  and  _34
REMARK   17  A    between atoms: _36  and  _38
REMARK   18  A    between atoms: _38  and  _39
REMARK   19  A    between atoms: _38  and  _41
REMARK   20  A    between atoms: _41  and  _42
REMARK   21  A    between atoms: _44  and  _46
REMARK   22  A    between atoms: _46  and  _47
REMARK   23  A    between atoms: _46  and  _49
REMARK   24  A    between atoms: _49  and  _50
REMARK   25  A    between atoms: _52  and  _54
REMARK   26  A    between atoms: _54  and  _55
REMARK   27  A    between atoms: _54  and  _57
REMARK   28  A    between atoms: _57  and  _58
REMARK   29  A    between atoms: _61  and  _63
REMARK   30  A    between atoms: _63  and  _64
REMARK   31  A    between atoms: _66  and  _68
REMARK   32  A    between atoms: _68  and  _69
REMARK   33  A    between atoms: _72  and  _74
REMARK   34  A    between atoms: _74  and  _75
REMARK   35  A    between atoms: _74  and  _77
REMARK   36  A    between atoms: _77  and  _78
REMARK   37  A    between atoms: _78  and  _79
REMARK   38  A    between atoms: _82  and  _84
REMARK   39  A    between atoms: _84  and  _85
REMARK   40  A    between atoms: _84  and  _87
REMARK   41  A    between atoms: _87  and  _88
REMARK   42  A    between atoms: _90  and  _92
REMARK   43  A    between atoms: _92  and  _93
REMARK   44  A    between atoms: _92  and  _95
REMARK   45  A    between atoms: _95  and  _96
REMARK   46  A    between atoms: _101  and  _103
REMARK   47  A    between atoms: _103  and  _104
REMARK   48  A    between atoms: _103  and  _106
REMARK   49  A    between atoms: _106  and  _107
REMARK   50  A    between atoms: _107  and  _108
REMARK   51  A    between atoms: _111  and  _113
REMARK   52  A    between atoms: _113  and  _114
REMARK   53  A    between atoms: _113  and  _116
REMARK   54  A    between atoms: _116  and  _117
REMARK   55  A    between atoms: _119  and  _121
REMARK   56  A    between atoms: _121  and  _122
REMARK   57  A    between atoms: _121  and  _124
REMARK   58  A    between atoms: _124  and  _125
REMARK   59  A    between atoms: _135  and  _137
REMARK   60  A    between atoms: _137  and  _138
REMARK   61  A    between atoms: _137  and  _140
REMARK   62  A    between atoms: _140  and  _141
REMARK   63  A    between atoms: _146  and  _148
REMARK   64  A    between atoms: _148  and  _149
REMARK   65  A    between atoms: _151  and  _153
REMARK   66  A    between atoms: _153  and  _154
REMARK   67  A    between atoms: _153  and  _156
REMARK   68  A    between atoms: _156  and  _157
REMARK   69  A    between atoms: _157  and  _158
REMARK   70  A    between atoms: _160  and  _162
REMARK   71  A    between atoms: _162  and  _163
REMARK   72  A    between atoms: _162  and  _165
REMARK   73  A    between atoms: _165  and  _166
REMARK   74  A    between atoms: _169  and  _171
REMARK   75  A    between atoms: _171  and  _172
REMARK   76  A    between atoms: _175  and  _177
REMARK   77  A    between atoms: _177  and  _178
REMARK   78  A    between atoms: _177  and  _180
REMARK   79  A    between atoms: _180  and  _181
REMARK   80  A    between atoms: _184  and  _186
REMARK   81  A    between atoms: _186  and  _187
REMARK   82  A    between atoms: _186  and  _189
REMARK   83  A    between atoms: _189  and  _190
REMARK   84  A    between atoms: _192  and  _194
REMARK   85  A    between atoms: _194  and  _195
REMARK   86  A    between atoms: _198  and  _200
REMARK   87  A    between atoms: _200  and  _201
REMARK   88  A    between atoms: _200  and  _203
REMARK   89  A    between atoms: _203  and  _205
REMARK   90  A    between atoms: _207  and  _209
REMARK   91  A    between atoms: _209  and  _210
REMARK   92  A    between atoms: _213  and  _215
REMARK   93  A    between atoms: _215  and  _216
REMARK   94  A    between atoms: _215  and  _218
REMARK   95  A    between atoms: _218  and  _219
REMARK   96  A    between atoms: _219  and  _220
REMARK   97  A    between atoms: _224  and  _225
REMARK   98  A    between atoms: _230  and  _232
REMARK   99  A    between atoms: _232  and  _233
REMARK  100  A    between atoms: _232  and  _235
REMARK  101  A    between atoms: _235  and  _236
REMARK  102  A    between atoms: _239  and  _241
REMARK  103  A    between atoms: _241  and  _242
REMARK  104  A    between atoms: _241  and  _244
REMARK  105  A    between atoms: _244  and  _245
REMARK  106  A    between atoms: _248  and  _250
REMARK  107  A    between atoms: _250  and  _251
REMARK  108  A    between atoms: _250  and  _253
REMARK  109  A    between atoms: _253  and  _254
REMARK  110  A    between atoms: _256  and  _258
REMARK  111  A    between atoms: _258  and  _259
REMARK  112  A    between atoms: _258  and  _261
REMARK  113  A    between atoms: _261  and  _262
REMARK  114  A    between atoms: _264  and  _266
REMARK  115  A    between atoms: _266  and  _267
REMARK  116  A    between atoms: _269  and  _271
REMARK  117  A    between atoms: _271  and  _272
REMARK  118  A    between atoms: _274  and  _276
REMARK  119  A    between atoms: _276  and  _277
REMARK  120  A    between atoms: _276  and  _279
REMARK  121  A    between atoms: _279  and  _280
REMARK  122  A    between atoms: _283  and  _285
REMARK  123  A    between atoms: _285  and  _286
REMARK  124  A    between atoms: _285  and  _288
REMARK  125  A    between atoms: _288  and  _289
REMARK  126  A    between atoms: _289  and  _290
REMARK  127  A    between atoms: _293  and  _295
REMARK  128  A    between atoms: _295  and  _296
REMARK  129  A    between atoms: _299  and  _301
REMARK  130  A    between atoms: _301  and  _302
REMARK  131  A    between atoms: _301  and  _304
REMARK  132  A    between atoms: _304  and  _305
REMARK  133  A    between atoms: _305  and  _306
REMARK  134  A    between atoms: _311  and  _313
REMARK  135  A    between atoms: _313  and  _314
REMARK  136  A    between atoms: _313  and  _316
REMARK  137  A    between atoms: _316  and  _317
REMARK  138  A    between atoms: _320  and  _322
REMARK  139  A    between atoms: _322  and  _323
REMARK  140  A    between atoms: _322  and  _325
REMARK  141  A    between atoms: _325  and  _326
REMARK  142  A    between atoms: _329  and  _331
REMARK  143  A    between atoms: _331  and  _332
REMARK  144  A    between atoms: _331  and  _334
REMARK  145  A    between atoms: _334  and  _335
REMARK  146  A    between atoms: _338  and  _340
REMARK  147  A    between atoms: _340  and  _341
REMARK  148  A    between atoms: _340  and  _343
REMARK  149  A    between atoms: _343  and  _344
REMARK  150  A    between atoms: _346  and  _348
REMARK  151  A    between atoms: _348  and  _349
REMARK  152  A    between atoms: _348  and  _351
REMARK  153  A    between atoms: _351  and  _352
REMARK  154  A    between atoms: _352  and  _353
REMARK  155  A    between atoms: _353  and  _354
REMARK  156  A    between atoms: _354  and  _355
REMARK  157  A    between atoms: _360  and  _361
REMARK  158  A    between atoms: _366  and  _368
REMARK  159  A    between atoms: _368  and  _369
REMARK  160  A    between atoms: _368  and  _371
REMARK  161  A    between atoms: _371  and  _372
REMARK  162  A    between atoms: _375  and  _377
REMARK  163  A    between atoms: _377  and  _378
REMARK  164  A    between atoms: _381  and  _383
REMARK  165  A    between atoms: _383  and  _384
REMARK  166  A    between atoms: _383  and  _386
REMARK  167  A    between atoms: _386  and  _387
REMARK  168  A    between atoms: _392  and  _394
REMARK  169  A    between atoms: _394  and  _395
REMARK  170  A    between atoms: _394  and  _397
REMARK  171  A    between atoms: _400  and  _402
REMARK  172  A    between atoms: _402  and  _403
REMARK  173  A    between atoms: _402  and  _405
REMARK  174  A    between atoms: _405  and  _406
REMARK  175  A    between atoms: _406  and  _407
REMARK  176  A    between atoms: _407  and  _408
REMARK  177  A    between atoms: _417  and  _419
REMARK  178  A    between atoms: _419  and  _420
REMARK  179  A    between atoms: _419  and  _422
REMARK  180  A    between atoms: _422  and  _423
REMARK  181  A    between atoms: _428  and  _430
REMARK  182  A    between atoms: _430  and  _431
REMARK  183  A    between atoms: _430  and  _433
REMARK  184  A    between atoms: _433  and  _434
REMARK  185  A    between atoms: _440  and  _442
REMARK  186  A    between atoms: _442  and  _443
REMARK  187  A    between atoms: _442  and  _445
REMARK  188  A    between atoms: _445  and  _446
REMARK  189  A    between atoms: _448  and  _450
REMARK  190  A    between atoms: _450  and  _451
REMARK  191  A    between atoms: _450  and  _453
REMARK  192  A    between atoms: _453  and  _454
REMARK  193  A    between atoms: _454  and  _455
REMARK  194  A    between atoms: _458  and  _460
REMARK  195  A    between atoms: _460  and  _461
REMARK  196  A    between atoms: _460  and  _463
REMARK  197  A    between atoms: _463  and  _464
REMARK  198  A    between atoms: _466  and  _468
REMARK  199  A    between atoms: _468  and  _469
REMARK  200  A    between atoms: _468  and  _471
REMARK  201  A    between atoms: _471  and  _472
REMARK  202  A    between atoms: _472  and  _473
REMARK  203  A    between atoms: _476  and  _478
REMARK  204  A    between atoms: _478  and  _479
REMARK  205  A    between atoms: _478  and  _481
REMARK  206  A    between atoms: _481  and  _482
REMARK  207  A    between atoms: _485  and  _487
REMARK  208  A    between atoms: _487  and  _488
REMARK  209  A    between atoms: _487  and  _490
REMARK  210  A    between atoms: _490  and  _491
REMARK  211  A    between atoms: _497  and  _499
REMARK  212  A    between atoms: _499  and  _500
REMARK  213  A    between atoms: _499  and  _502
REMARK  214  A    between atoms: _502  and  _503
REMARK  215  A    between atoms: _508  and  _509
REMARK  216  A    between atoms: _511  and  _513
REMARK  217  A    between atoms: _513  and  _514
REMARK  218  A    between atoms: _513  and  _516
REMARK  219  A    between atoms: _516  and  _517
REMARK  220  A    between atoms: _520  and  _522
REMARK  221  A    between atoms: _522  and  _523
REMARK  222  A    between atoms: _522  and  _525
REMARK  223  A    between atoms: _525  and  _526
REMARK  224  A    between atoms: _529  and  _531
REMARK  225  A    between atoms: _531  and  _532
REMARK  226  A    between atoms: _531  and  _534
REMARK  227  A    between atoms: _534  and  _535
REMARK  228  A    between atoms: _540  and  _542
REMARK  229  A    between atoms: _542  and  _543
REMARK  230  A    between atoms: _542  and  _545
REMARK                            x       y       z     vdW  Elec       q    Type
REMARK                         _______ _______ _______ _____ _____    ______ ____
ROOT
ATOM      1  O   HOH     1      11.969  55.878  13.983  0.00  0.00    +0.000 OA
ENDROOT
TORSDOF 0
REMARK  Name = ../refined-set-2016/1m0o/1m0o_pocket.pdb
REMARK  230 active torsions:
REMARK  status: ('A' for Active; 'I' for Inactive)
REMARK    1  A    between atoms: _1  and  _3
REMARK    2  A    between atoms: _3  and  _4
REMARK    3  A    between atoms: _3  and  _6
REMARK    4  A    between atoms: _6  and  _7
REMARK    5  A    between atoms: _10  and  _12
REMARK    6  A    between atoms: _12  and  _13
REMARK    7  A    between atoms: _15  and  _17
REMARK    8  A    between atoms: _17  and  _18
REMARK    9  A    between atoms: _17  and  _20
REMARK   10  A    between atoms: _20  and  _21
REMARK   11  A    between atoms: _21  and  _22
REMARK   12  A    between atoms: _27  and  _29
REMARK   13  A    between atoms: _29  and  _30
REMARK   14  A    between atoms: _29  and  _32
REMARK   15  A    between atoms: _32  and  _33
REMARK   16  A    between atoms: _33  and  _34
REMARK   17  A    between atoms: _36  and  _38
REMARK   18  A    between atoms: _38  and  _39
REMARK   19  A    between atoms: _38  and  _41
REMARK   20  A    between atoms: _41  and  _42
REMARK   21  A    between atoms: _44  and  _46
REMARK   22  A    between atoms: _46  and  _47
REMARK   23  A    between atoms: _46  and  _49
REMARK   24  A    between atoms: _49  and  _50
REMARK   25  A    between atoms: _52  and  _54
REMARK   26  A    between atoms: _54  and  _55
REMARK   27  A    between atoms: _54  and  _57
REMARK   28  A    between atoms: _57  and  _58
REMARK   29  A    between atoms: _61  and  _63
REMARK   30  A    between atoms: _63  and  _64
REMARK   31  A    between atoms: _66  and  _68
REMARK   32  A    between atoms: _68  and  _69
REMARK   33  A    between atoms: _72  and  _74
REMARK   34  A    between atoms: _74  and  _75
REMARK   35  A    between atoms: _74  and  _77
REMARK   36  A    between atoms: _77  and  _78
REMARK   37  A    between atoms: _78  and  _79
REMARK   38  A    between atoms: _82  and  _84
REMARK   39  A    between atoms: _84  and  _85
REMARK   40  A    between atoms: _84  and  _87
REMARK   41  A    between atoms: _87  and  _88
REMARK   42  A    between atoms: _90  and  _92
REMARK   43  A    between atoms: _92  and  _93
REMARK   44  A    between atoms: _92  and  _95
REMARK   45  A    between atoms: _95  and  _96
REMARK   46  A    between atoms: _101  and  _103
REMARK   47  A    between atoms: _103  and  _104
REMARK   48  A    between atoms: _103  and  _106
REMARK   49  A    between atoms: _106  and  _107
REMARK   50  A    between atoms: _107  and  _108
REMARK   51  A    between atoms: _111  and  _113
REMARK   52  A    between atoms: _113  and  _114
REMARK   53  A    between atoms: _113  and  _116
REMARK   54  A    between atoms: _116  and  _117
REMARK   55  A    between atoms: _119  and  _121
REMARK   56  A    between atoms: _121  and  _122
REMARK   57  A    between atoms: _121  and  _124
REMARK   58  A    between atoms: _124  and  _125
REMARK   59  A    between atoms: _135  and  _137
REMARK   60  A    between atoms: _137  and  _138
REMARK   61  A    between atoms: _137  and  _140
REMARK   62  A    between atoms: _140  and  _141
REMARK   63  A    between atoms: _146  and  _148
REMARK   64  A    between atoms: _148  and  _149
REMARK   65  A    between atoms: _151  and  _153
REMARK   66  A    between atoms: _153  and  _154
REMARK   67  A    between atoms: _153  and  _156
REMARK   68  A    between atoms: _156  and  _157
REMARK   69  A    between atoms: _157  and  _158
REMARK   70  A    between atoms: _160  and  _162
REMARK   71  A    between atoms: _162  and  _163
REMARK   72  A    between atoms: _162  and  _165
REMARK   73  A    between atoms: _165  and  _166
REMARK   74  A    between atoms: _169  and  _171
REMARK   75  A    between atoms: _171  and  _172
REMARK   76  A    between atoms: _175  and  _177
REMARK   77  A    between atoms: _177  and  _178
REMARK   78  A    between atoms: _177  and  _180
REMARK   79  A    between atoms: _180  and  _181
REMARK   80  A    between atoms: _184  and  _186
REMARK   81  A    between atoms: _186  and  _187
REMARK   82  A    between atoms: _186  and  _189
REMARK   83  A    between atoms: _189  and  _190
REMARK   84  A    between atoms: _192  and  _194
REMARK   85  A    between atoms: _194  and  _195
REMARK   86  A    between atoms: _198  and  _200
REMARK   87  A    between atoms: _200  and  _201
REMARK   88  A    between atoms: _200  and  _203
REMARK   89  A    between atoms: _203  and  _205
REMARK   90  A    between atoms: _207  and  _209
REMARK   91  A    between atoms: _209  and  _210
REMARK   92  A    between atoms: _213  and  _215
REMARK   93  A    between atoms: _215  and  _216
REMARK   94  A    between atoms: _215  and  _218
REMARK   95  A    between atoms: _218  and  _219
REMARK   96  A    between atoms: _219  and  _220
REMARK   97  A    between atoms: _224  and  _225
REMARK   98  A    between atoms: _230  and  _232
REMARK   99  A    between atoms: _232  and  _233
REMARK  100  A    between atoms: _232  and  _235
REMARK  101  A    between atoms: _235  and  _236
REMARK  102  A    between atoms: _239  and  _241
REMARK  103  A    between atoms: _241  and  _242
REMARK  104  A    between atoms: _241  and  _244
REMARK  105  A    between atoms: _244  and  _245
REMARK  106  A    between atoms: _248  and  _250
REMARK  107  A    between atoms: _250  and  _251
REMARK  108  A    between atoms: _250  and  _253
REMARK  109  A    between atoms: _253  and  _254
REMARK  110  A    between atoms: _256  and  _258
REMARK  111  A    between atoms: _258  and  _259
REMARK  112  A    between atoms: _258  and  _261
REMARK  113  A    between atoms: _261  and  _262
REMARK  114  A    between atoms: _264  and  _266
REMARK  115  A    between atoms: _266  and  _267
REMARK  116  A    between atoms: _269  and  _271
REMARK  117  A    between atoms: _271  and  _272
REMARK  118  A    between atoms: _274  and  _276
REMARK  119  A    between atoms: _276  and  _277
REMARK  120  A    between atoms: _276  and  _279
REMARK  121  A    between atoms: _279  and  _280
REMARK  122  A    between atoms: _283  and  _285
REMARK  123  A    between atoms: _285  and  _286
REMARK  124  A    between atoms: _285  and  _288
REMARK  125  A    between atoms: _288  and  _289
REMARK  126  A    between atoms: _289  and  _290
REMARK  127  A    between atoms: _293  and  _295
REMARK  128  A    between atoms: _295  and  _296
REMARK  129  A    between atoms: _299  and  _301
REMARK  130  A    between atoms: _301  and  _302
REMARK  131  A    between atoms: _301  and  _304
REMARK  132  A    between atoms: _304  and  _305
REMARK  133  A    between atoms: _305  and  _306
REMARK  134  A    between atoms: _311  and  _313
REMARK  135  A    between atoms: _313  and  _314
REMARK  136  A    between atoms: _313  and  _316
REMARK  137  A    between atoms: _316  and  _317
REMARK  138  A    between atoms: _320  and  _322
REMARK  139  A    between atoms: _322  and  _323
REMARK  140  A    between atoms: _322  and  _325
REMARK  141  A    between atoms: _325  and  _326
REMARK  142  A    between atoms: _329  and  _331
REMARK  143  A    between atoms: _331  and  _332
REMARK  144  A    between atoms: _331  and  _334
REMARK  145  A    between atoms: _334  and  _335
REMARK  146  A    between atoms: _338  and  _340
REMARK  147  A    between atoms: _340  and  _341
REMARK  148  A    between atoms: _340  and  _343
REMARK  149  A    between atoms: _343  and  _344
REMARK  150  A    between atoms: _346  and  _348
REMARK  151  A    between atoms: _348  and  _349
REMARK  152  A    between atoms: _348  and  _351
REMARK  153  A    between atoms: _351  and  _352
REMARK  154  A    between atoms: _352  and  _353
REMARK  155  A    between atoms: _353  and  _354
REMARK  156  A    between atoms: _354  and  _355
REMARK  157  A    between atoms: _360  and  _361
REMARK  158  A    between atoms: _366  and  _368
REMARK  159  A    between atoms: _368  and  _369
REMARK  160  A    between atoms: _368  and  _371
REMARK  161  A    between atoms: _371  and  _372
REMARK  162  A    between atoms: _375  and  _377
REMARK  163  A    between atoms: _377  and  _378
REMARK  164  A    between atoms: _381  and  _383
REMARK  165  A    between atoms: _383  and  _384
REMARK  166  A    between atoms: _383  and  _386
REMARK  167  A    between atoms: _386  and  _387
REMARK  168  A    between atoms: _392  and  _394
REMARK  169  A    between atoms: _394  and  _395
REMARK  170  A    between atoms: _394  and  _397
REMARK  171  A    between atoms: _400  and  _402
REMARK  172  A    between atoms: _402  and  _403
REMARK  173  A    between atoms: _402  and  _405
REMARK  174  A    between atoms: _405  and  _406
REMARK  175  A    between atoms: _406  and  _407
REMARK  176  A    between atoms: _407  and  _408
REMARK  177  A    between atoms: _417  and  _419
REMARK  178  A    between atoms: _419  and  _420
REMARK  179  A    between atoms: _419  and  _422
REMARK  180  A    between atoms: _422  and  _423
REMARK  181  A    between atoms: _428  and  _430
REMARK  182  A    between atoms: _430  and  _431
REMARK  183  A    between atoms: _430  and  _433
REMARK  184  A    between atoms: _433  and  _434
REMARK  185  A    between atoms: _440  and  _442
REMARK  186  A    between atoms: _442  and  _443
REMARK  187  A    between atoms: _442  and  _445
REMARK  188  A    between atoms: _445  and  _446
REMARK  189  A    between atoms: _448  and  _450
REMARK  190  A    between atoms: _450  and  _451
REMARK  191  A    between atoms: _450  and  _453
REMARK  192  A    between atoms: _453  and  _454
REMARK  193  A    between atoms: _454  and  _455
REMARK  194  A    between atoms: _458  and  _460
REMARK  195  A    between atoms: _460  and  _461
REMARK  196  A    between atoms: _460  and  _463
REMARK  197  A    between atoms: _463  and  _464
REMARK  198  A    between atoms: _466  and  _468
REMARK  199  A    between atoms: _468  and  _469
REMARK  200  A    between atoms: _468  and  _471
REMARK  201  A    between atoms: _471  and  _472
REMARK  202  A    between atoms: _472  and  _473
REMARK  203  A    between atoms: _476  and  _478
REMARK  204  A    between atoms: _478  and  _479
REMARK  205  A    between atoms: _478  and  _481
REMARK  206  A    between atoms: _481  and  _482
REMARK  207  A    between atoms: _485  and  _487
REMARK  208  A    between atoms: _487  and  _488
REMARK  209  A    between atoms: _487  and  _490
REMARK  210  A    between atoms: _490  and  _491
REMARK  211  A    between atoms: _497  and  _499
REMARK  212  A    between atoms: _499  and  _500
REMARK  213  A    between atoms: _499  and  _502
REMARK  214  A    between atoms: _502  and  _503
REMARK  215  A    between atoms: _508  and  _509
REMARK  216  A    between atoms: _511  and  _513
REMARK  217  A    between atoms: _513  and  _514
REMARK  218  A    between atoms: _513  and  _516
REMARK  219  A    between atoms: _516  and  _517
REMARK  220  A    between atoms: _520  and  _522
REMARK  221  A    between atoms: _522  and  _523
REMARK  222  A    between atoms: _522  and  _525
REMARK  223  A    between atoms: _525  and  _526
REMARK  224  A    between atoms: _529  and  _531
REMARK  225  A    between atoms: _531  and  _532
REMARK  226  A    between atoms: _531  and  _534
REMARK  227  A    between atoms: _534  and  _535
REMARK  228  A    between atoms: _540  and  _542
REMARK  229  A    between atoms: _542  and  _543
REMARK  230  A    between atoms: _542  and  _545
REMARK                            x       y       z     vdW  Elec       q    Type
REMARK                         _______ _______ _______ _____ _____    ______ ____
ROOT
ATOM      1  O   HOH     1      14.748  42.013  14.292  0.00  0.00    +0.000 OA
ENDROOT
TORSDOF 0
REMARK  Name = ../refined-set-2016/1m0o/1m0o_pocket.pdb
REMARK  230 active torsions:
REMARK  status: ('A' for Active; 'I' for Inactive)
REMARK    1  A    between atoms: _1  and  _3
REMARK    2  A    between atoms: _3  and  _4
REMARK    3  A    between atoms: _3  and  _6
REMARK    4  A    between atoms: _6  and  _7
REMARK    5  A    between atoms: _10  and  _12
REMARK    6  A    between atoms: _12  and  _13
REMARK    7  A    between atoms: _15  and  _17
REMARK    8  A    between atoms: _17  and  _18
REMARK    9  A    between atoms: _17  and  _20
REMARK   10  A    between atoms: _20  and  _21
REMARK   11  A    between atoms: _21  and  _22
REMARK   12  A    between atoms: _27  and  _29
REMARK   13  A    between atoms: _29  and  _30
REMARK   14  A    between atoms: _29  and  _32
REMARK   15  A    between atoms: _32  and  _33
REMARK   16  A    between atoms: _33  and  _34
REMARK   17  A    between atoms: _36  and  _38
REMARK   18  A    between atoms: _38  and  _39
REMARK   19  A    between atoms: _38  and  _41
REMARK   20  A    between atoms: _41  and  _42
REMARK   21  A    between atoms: _44  and  _46
REMARK   22  A    between atoms: _46  and  _47
REMARK   23  A    between atoms: _46  and  _49
REMARK   24  A    between atoms: _49  and  _50
REMARK   25  A    between atoms: _52  and  _54
REMARK   26  A    between atoms: _54  and  _55
REMARK   27  A    between atoms: _54  and  _57
REMARK   28  A    between atoms: _57  and  _58
REMARK   29  A    between atoms: _61  and  _63
REMARK   30  A    between atoms: _63  and  _64
REMARK   31  A    between atoms: _66  and  _68
REMARK   32  A    between atoms: _68  and  _69
REMARK   33  A    between atoms: _72  and  _74
REMARK   34  A    between atoms: _74  and  _75
REMARK   35  A    between atoms: _74  and  _77
REMARK   36  A    between atoms: _77  and  _78
REMARK   37  A    between atoms: _78  and  _79
REMARK   38  A    between atoms: _82  and  _84
REMARK   39  A    between atoms: _84  and  _85
REMARK   40  A    between atoms: _84  and  _87
REMARK   41  A    between atoms: _87  and  _88
REMARK   42  A    between atoms: _90  and  _92
REMARK   43  A    between atoms: _92  and  _93
REMARK   44  A    between atoms: _92  and  _95
REMARK   45  A    between atoms: _95  and  _96
REMARK   46  A    between atoms: _101  and  _103
REMARK   47  A    between atoms: _103  and  _104
REMARK   48  A    between atoms: _103  and  _106
REMARK   49  A    between atoms: _106  and  _107
REMARK   50  A    between atoms: _107  and  _108
REMARK   51  A    between atoms: _111  and  _113
REMARK   52  A    between atoms: _113  and  _114
REMARK   53  A    between atoms: _113  and  _116
REMARK   54  A    between atoms: _116  and  _117
REMARK   55  A    between atoms: _119  and  _121
REMARK   56  A    between atoms: _121  and  _122
REMARK   57  A    between atoms: _121  and  _124
REMARK   58  A    between atoms: _124  and  _125
REMARK   59  A    between atoms: _135  and  _137
REMARK   60  A    between atoms: _137  and  _138
REMARK   61  A    between atoms: _137  and  _140
REMARK   62  A    between atoms: _140  and  _141
REMARK   63  A    between atoms: _146  and  _148
REMARK   64  A    between atoms: _148  and  _149
REMARK   65  A    between atoms: _151  and  _153
REMARK   66  A    between atoms: _153  and  _154
REMARK   67  A    between atoms: _153  and  _156
REMARK   68  A    between atoms: _156  and  _157
REMARK   69  A    between atoms: _157  and  _158
REMARK   70  A    between atoms: _160  and  _162
REMARK   71  A    between atoms: _162  and  _163
REMARK   72  A    between atoms: _162  and  _165
REMARK   73  A    between atoms: _165  and  _166
REMARK   74  A    between atoms: _169  and  _171
REMARK   75  A    between atoms: _171  and  _172
REMARK   76  A    between atoms: _175  and  _177
REMARK   77  A    between atoms: _177  and  _178
REMARK   78  A    between atoms: _177  and  _180
REMARK   79  A    between atoms: _180  and  _181
REMARK   80  A    between atoms: _184  and  _186
REMARK   81  A    between atoms: _186  and  _187
REMARK   82  A    between atoms: _186  and  _189
REMARK   83  A    between atoms: _189  and  _190
REMARK   84  A    between atoms: _192  and  _194
REMARK   85  A    between atoms: _194  and  _195
REMARK   86  A    between atoms: _198  and  _200
REMARK   87  A    between atoms: _200  and  _201
REMARK   88  A    between atoms: _200  and  _203
REMARK   89  A    between atoms: _203  and  _205
REMARK   90  A    between atoms: _207  and  _209
REMARK   91  A    between atoms: _209  and  _210
REMARK   92  A    between atoms: _213  and  _215
REMARK   93  A    between atoms: _215  and  _216
REMARK   94  A    between atoms: _215  and  _218
REMARK   95  A    between atoms: _218  and  _219
REMARK   96  A    between atoms: _219  and  _220
REMARK   97  A    between atoms: _224  and  _225
REMARK   98  A    between atoms: _230  and  _232
REMARK   99  A    between atoms: _232  and  _233
REMARK  100  A    between atoms: _232  and  _235
REMARK  101  A    between atoms: _235  and  _236
REMARK  102  A    between atoms: _239  and  _241
REMARK  103  A    between atoms: _241  and  _242
REMARK  104  A    between atoms: _241  and  _244
REMARK  105  A    between atoms: _244  and  _245
REMARK  106  A    between atoms: _248  and  _250
REMARK  107  A    between atoms: _250  and  _251
REMARK  108  A    between atoms: _250  and  _253
REMARK  109  A    between atoms: _253  and  _254
REMARK  110  A    between atoms: _256  and  _258
REMARK  111  A    between atoms: _258  and  _259
REMARK  112  A    between atoms: _258  and  _261
REMARK  113  A    between atoms: _261  and  _262
REMARK  114  A    between atoms: _264  and  _266
REMARK  115  A    between atoms: _266  and  _267
REMARK  116  A    between atoms: _269  and  _271
REMARK  117  A    between atoms: _271  and  _272
REMARK  118  A    between atoms: _274  and  _276
REMARK  119  A    between atoms: _276  and  _277
REMARK  120  A    between atoms: _276  and  _279
REMARK  121  A    between atoms: _279  and  _280
REMARK  122  A    between atoms: _283  and  _285
REMARK  123  A    between atoms: _285  and  _286
REMARK  124  A    between atoms: _285  and  _288
REMARK  125  A    between atoms: _288  and  _289
REMARK  126  A    between atoms: _289  and  _290
REMARK  127  A    between atoms: _293  and  _295
REMARK  128  A    between atoms: _295  and  _296
REMARK  129  A    between atoms: _299  and  _301
REMARK  130  A    between atoms: _301  and  _302
REMARK  131  A    between atoms: _301  and  _304
REMARK  132  A    between atoms: _304  and  _305
REMARK  133  A    between atoms: _305  and  _306
REMARK  134  A    between atoms: _311  and  _313
REMARK  135  A    between atoms: _313  and  _314
REMARK  136  A    between atoms: _313  and  _316
REMARK  137  A    between atoms: _316  and  _317
REMARK  138  A    between atoms: _320  and  _322
REMARK  139  A    between atoms: _322  and  _323
REMARK  140  A    between atoms: _322  and  _325
REMARK  141  A    between atoms: _325  and  _326
REMARK  142  A    between atoms: _329  and  _331
REMARK  143  A    between atoms: _331  and  _332
REMARK  144  A    between atoms: _331  and  _334
REMARK  145  A    between atoms: _334  and  _335
REMARK  146  A    between atoms: _338  and  _340
REMARK  147  A    between atoms: _340  and  _341
REMARK  148  A    between atoms: _340  and  _343
REMARK  149  A    between atoms: _343  and  _344
REMARK  150  A    between atoms: _346  and  _348
REMARK  151  A    between atoms: _348  and  _349
REMARK  152  A    between atoms: _348  and  _351
REMARK  153  A    between atoms: _351  and  _352
REMARK  154  A    between atoms: _352  and  _353
REMARK  155  A    between atoms: _353  and  _354
REMARK  156  A    between atoms: _354  and  _355
REMARK  157  A    between atoms: _360  and  _361
REMARK  158  A    between atoms: _366  and  _368
REMARK  159  A    between atoms: _368  and  _369
REMARK  160  A    between atoms: _368  and  _371
REMARK  161  A    between atoms: _371  and  _372
REMARK  162  A    between atoms: _375  and  _377
REMARK  163  A    between atoms: _377  and  _378
REMARK  164  A    between atoms: _381  and  _383
REMARK  165  A    between atoms: _383  and  _384
REMARK  166  A    between atoms: _383  and  _386
REMARK  167  A    between atoms: _386  and  _387
REMARK  168  A    between atoms: _392  and  _394
REMARK  169  A    between atoms: _394  and  _395
REMARK  170  A    between atoms: _394  and  _397
REMARK  171  A    between atoms: _400  and  _402
REMARK  172  A    between atoms: _402  and  _403
REMARK  173  A    between atoms: _402  and  _405
REMARK  174  A    between atoms: _405  and  _406
REMARK  175  A    between atoms: _406  and  _407
REMARK  176  A    between atoms: _407  and  _408
REMARK  177  A    between atoms: _417  and  _419
REMARK  178  A    between atoms: _419  and  _420
REMARK  179  A    between atoms: _419  and  _422
REMARK  180  A    between atoms: _422  and  _423
REMARK  181  A    between atoms: _428  and  _430
REMARK  182  A    between atoms: _430  and  _431
REMARK  183  A    between atoms: _430  and  _433
REMARK  184  A    between atoms: _433  and  _434
REMARK  185  A    between atoms: _440  and  _442
REMARK  186  A    between atoms: _442  and  _443
REMARK  187  A    between atoms: _442  and  _445
REMARK  188  A    between atoms: _445  and  _446
REMARK  189  A    between atoms: _448  and  _450
REMARK  190  A    between atoms: _450  and  _451
REMARK  191  A    between atoms: _450  and  _453
REMARK  192  A    between atoms: _453  and  _454
REMARK  193  A    between atoms: _454  and  _455
REMARK  194  A    between atoms: _458  and  _460
REMARK  195  A    between atoms: _460  and  _461
REMARK  196  A    between atoms: _460  and  _463
REMARK  197  A    between atoms: _463  and  _464
REMARK  198  A    between atoms: _466  and  _468
REMARK  199  A    between atoms: _468  and  _469
REMARK  200  A    between atoms: _468  and  _471
REMARK  201  A    between atoms: _471  and  _472
REMARK  202  A    between atoms: _472  and  _473
REMARK  203  A    between atoms: _476  and  _478
REMARK  204  A    between atoms: _478  and  _479
REMARK  205  A    between atoms: _478  and  _481
REMARK  206  A    between atoms: _481  and  _482
REMARK  207  A    between atoms: _485  and  _487
REMARK  208  A    between atoms: _487  and  _488
REMARK  209  A    between atoms: _487  and  _490
REMARK  210  A    between atoms: _490  and  _491
REMARK  211  A    between atoms: _497  and  _499
REMARK  212  A    between atoms: _499  and  _500
REMARK  213  A    between atoms: _499  and  _502
REMARK  214  A    between atoms: _502  and  _503
REMARK  215  A    between atoms: _508  and  _509
REMARK  216  A    between atoms: _511  and  _513
REMARK  217  A    between atoms: _513  and  _514
REMARK  218  A    between atoms: _513  and  _516
REMARK  219  A    between atoms: _516  and  _517
REMARK  220  A    between atoms: _520  and  _522
REMARK  221  A    between atoms: _522  and  _523
REMARK  222  A    between atoms: _522  and  _525
REMARK  223  A    between atoms: _525  and  _526
REMARK  224  A    between atoms: _529  and  _531
REMARK  225  A    between atoms: _531  and  _532
REMARK  226  A    between atoms: _531  and  _534
REMARK  227  A    between atoms: _534  and  _535
REMARK  228  A    between atoms: _540  and  _542
REMARK  229  A    between atoms: _542  and  _543
REMARK  230  A    between atoms: _542  and  _545
REMARK                            x       y       z     vdW  Elec       q    Type
REMARK                         _______ _______ _______ _____ _____    ______ ____
ROOT
ATOM      1  O   HOH     1      12.368  53.905  11.644  0.00  0.00    +0.000 OA
ENDROOT
TORSDOF 0
REMARK  Name = ../refined-set-2016/1m0o/1m0o_pocket.pdb
REMARK  230 active torsions:
REMARK  status: ('A' for Active; 'I' for Inactive)
REMARK    1  A    between atoms: _1  and  _3
REMARK    2  A    between atoms: _3  and  _4
REMARK    3  A    between atoms: _3  and  _6
REMARK    4  A    between atoms: _6  and  _7
REMARK    5  A    between atoms: _10  and  _12
REMARK    6  A    between atoms: _12  and  _13
REMARK    7  A    between atoms: _15  and  _17
REMARK    8  A    between atoms: _17  and  _18
REMARK    9  A    between atoms: _17  and  _20
REMARK   10  A    between atoms: _20  and  _21
REMARK   11  A    between atoms: _21  and  _22
REMARK   12  A    between atoms: _27  and  _29
REMARK   13  A    between atoms: _29  and  _30
REMARK   14  A    between atoms: _29  and  _32
REMARK   15  A    between atoms: _32  and  _33
REMARK   16  A    between atoms: _33  and  _34
REMARK   17  A    between atoms: _36  and  _38
REMARK   18  A    between atoms: _38  and  _39
REMARK   19  A    between atoms: _38  and  _41
REMARK   20  A    between atoms: _41  and  _42
REMARK   21  A    between atoms: _44  and  _46
REMARK   22  A    between atoms: _46  and  _47
REMARK   23  A    between atoms: _46  and  _49
REMARK   24  A    between atoms: _49  and  _50
REMARK   25  A    between atoms: _52  and  _54
REMARK   26  A    between atoms: _54  and  _55
REMARK   27  A    between atoms: _54  and  _57
REMARK   28  A    between atoms: _57  and  _58
REMARK   29  A    between atoms: _61  and  _63
REMARK   30  A    between atoms: _63  and  _64
REMARK   31  A    between atoms: _66  and  _68
REMARK   32  A    between atoms: _68  and  _69
REMARK   33  A    between atoms: _72  and  _74
REMARK   34  A    between atoms: _74  and  _75
REMARK   35  A    between atoms: _74  and  _77
REMARK   36  A    between atoms: _77  and  _78
REMARK   37  A    between atoms: _78  and  _79
REMARK   38  A    between atoms: _82  and  _84
REMARK   39  A    between atoms: _84  and  _85
REMARK   40  A    between atoms: _84  and  _87
REMARK   41  A    between atoms: _87  and  _88
REMARK   42  A    between atoms: _90  and  _92
REMARK   43  A    between atoms: _92  and  _93
REMARK   44  A    between atoms: _92  and  _95
REMARK   45  A    between atoms: _95  and  _96
REMARK   46  A    between atoms: _101  and  _103
REMARK   47  A    between atoms: _103  and  _104
REMARK   48  A    between atoms: _103  and  _106
REMARK   49  A    between atoms: _106  and  _107
REMARK   50  A    between atoms: _107  and  _108
REMARK   51  A    between atoms: _111  and  _113
REMARK   52  A    between atoms: _113  and  _114
REMARK   53  A    between atoms: _113  and  _116
REMARK   54  A    between atoms: _116  and  _117
REMARK   55  A    between atoms: _119  and  _121
REMARK   56  A    between atoms: _121  and  _122
REMARK   57  A    between atoms: _121  and  _124
REMARK   58  A    between atoms: _124  and  _125
REMARK   59  A    between atoms: _135  and  _137
REMARK   60  A    between atoms: _137  and  _138
REMARK   61  A    between atoms: _137  and  _140
REMARK   62  A    between atoms: _140  and  _141
REMARK   63  A    between atoms: _146  and  _148
REMARK   64  A    between atoms: _148  and  _149
REMARK   65  A    between atoms: _151  and  _153
REMARK   66  A    between atoms: _153  and  _154
REMARK   67  A    between atoms: _153  and  _156
REMARK   68  A    between atoms: _156  and  _157
REMARK   69  A    between atoms: _157  and  _158
REMARK   70  A    between atoms: _160  and  _162
REMARK   71  A    between atoms: _162  and  _163
REMARK   72  A    between atoms: _162  and  _165
REMARK   73  A    between atoms: _165  and  _166
REMARK   74  A    between atoms: _169  and  _171
REMARK   75  A    between atoms: _171  and  _172
REMARK   76  A    between atoms: _175  and  _177
REMARK   77  A    between atoms: _177  and  _178
REMARK   78  A    between atoms: _177  and  _180
REMARK   79  A    between atoms: _180  and  _181
REMARK   80  A    between atoms: _184  and  _186
REMARK   81  A    between atoms: _186  and  _187
REMARK   82  A    between atoms: _186  and  _189
REMARK   83  A    between atoms: _189  and  _190
REMARK   84  A    between atoms: _192  and  _194
REMARK   85  A    between atoms: _194  and  _195
REMARK   86  A    between atoms: _198  and  _200
REMARK   87  A    between atoms: _200  and  _201
REMARK   88  A    between atoms: _200  and  _203
REMARK   89  A    between atoms: _203  and  _205
REMARK   90  A    between atoms: _207  and  _209
REMARK   91  A    between atoms: _209  and  _210
REMARK   92  A    between atoms: _213  and  _215
REMARK   93  A    between atoms: _215  and  _216
REMARK   94  A    between atoms: _215  and  _218
REMARK   95  A    between atoms: _218  and  _219
REMARK   96  A    between atoms: _219  and  _220
REMARK   97  A    between atoms: _224  and  _225
REMARK   98  A    between atoms: _230  and  _232
REMARK   99  A    between atoms: _232  and  _233
REMARK  100  A    between atoms: _232  and  _235
REMARK  101  A    between atoms: _235  and  _236
REMARK  102  A    between atoms: _239  and  _241
REMARK  103  A    between atoms: _241  and  _242
REMARK  104  A    between atoms: _241  and  _244
REMARK  105  A    between atoms: _244  and  _245
REMARK  106  A    between atoms: _248  and  _250
REMARK  107  A    between atoms: _250  and  _251
REMARK  108  A    between atoms: _250  and  _253
REMARK  109  A    between atoms: _253  and  _254
REMARK  110  A    between atoms: _256  and  _258
REMARK  111  A    between atoms: _258  and  _259
REMARK  112  A    between atoms: _258  and  _261
REMARK  113  A    between atoms: _261  and  _262
REMARK  114  A    between atoms: _264  and  _266
REMARK  115  A    between atoms: _266  and  _267
REMARK  116  A    between atoms: _269  and  _271
REMARK  117  A    between atoms: _271  and  _272
REMARK  118  A    between atoms: _274  and  _276
REMARK  119  A    between atoms: _276  and  _277
REMARK  120  A    between atoms: _276  and  _279
REMARK  121  A    between atoms: _279  and  _280
REMARK  122  A    between atoms: _283  and  _285
REMARK  123  A    between atoms: _285  and  _286
REMARK  124  A    between atoms: _285  and  _288
REMARK  125  A    between atoms: _288  and  _289
REMARK  126  A    between atoms: _289  and  _290
REMARK  127  A    between atoms: _293  and  _295
REMARK  128  A    between atoms: _295  and  _296
REMARK  129  A    between atoms: _299  and  _301
REMARK  130  A    between atoms: _301  and  _302
REMARK  131  A    between atoms: _301  and  _304
REMARK  132  A    between atoms: _304  and  _305
REMARK  133  A    between atoms: _305  and  _306
REMARK  134  A    between atoms: _311  and  _313
REMARK  135  A    between atoms: _313  and  _314
REMARK  136  A    between atoms: _313  and  _316
REMARK  137  A    between atoms: _316  and  _317
REMARK  138  A    between atoms: _320  and  _322
REMARK  139  A    between atoms: _322  and  _323
REMARK  140  A    between atoms: _322  and  _325
REMARK  141  A    between atoms: _325  and  _326
REMARK  142  A    between atoms: _329  and  _331
REMARK  143  A    between atoms: _331  and  _332
REMARK  144  A    between atoms: _331  and  _334
REMARK  145  A    between atoms: _334  and  _335
REMARK  146  A    between atoms: _338  and  _340
REMARK  147  A    between atoms: _340  and  _341
REMARK  148  A    between atoms: _340  and  _343
REMARK  149  A    between atoms: _343  and  _344
REMARK  150  A    between atoms: _346  and  _348
REMARK  151  A    between atoms: _348  and  _349
REMARK  152  A    between atoms: _348  and  _351
REMARK  153  A    between atoms: _351  and  _352
REMARK  154  A    between atoms: _352  and  _353
REMARK  155  A    between atoms: _353  and  _354
REMARK  156  A    between atoms: _354  and  _355
REMARK  157  A    between atoms: _360  and  _361
REMARK  158  A    between atoms: _366  and  _368
REMARK  159  A    between atoms: _368  and  _369
REMARK  160  A    between atoms: _368  and  _371
REMARK  161  A    between atoms: _371  and  _372
REMARK  162  A    between atoms: _375  and  _377
REMARK  163  A    between atoms: _377  and  _378
REMARK  164  A    between atoms: _381  and  _383
REMARK  165  A    between atoms: _383  and  _384
REMARK  166  A    between atoms: _383  and  _386
REMARK  167  A    between atoms: _386  and  _387
REMARK  168  A    between atoms: _392  and  _394
REMARK  169  A    between atoms: _394  and  _395
REMARK  170  A    between atoms: _394  and  _397
REMARK  171  A    between atoms: _400  and  _402
REMARK  172  A    between atoms: _402  and  _403
REMARK  173  A    between atoms: _402  and  _405
REMARK  174  A    between atoms: _405  and  _406
REMARK  175  A    between atoms: _406  and  _407
REMARK  176  A    between atoms: _407  and  _408
REMARK  177  A    between atoms: _417  and  _419
REMARK  178  A    between atoms: _419  and  _420
REMARK  179  A    between atoms: _419  and  _422
REMARK  180  A    between atoms: _422  and  _423
REMARK  181  A    between atoms: _428  and  _430
REMARK  182  A    between atoms: _430  and  _431
REMARK  183  A    between atoms: _430  and  _433
REMARK  184  A    between atoms: _433  and  _434
REMARK  185  A    between atoms: _440  and  _442
REMARK  186  A    between atoms: _442  and  _443
REMARK  187  A    between atoms: _442  and  _445
REMARK  188  A    between atoms: _445  and  _446
REMARK  189  A    between atoms: _448  and  _450
REMARK  190  A    between atoms: _450  and  _451
REMARK  191  A    between atoms: _450  and  _453
REMARK  192  A    between atoms: _453  and  _454
REMARK  193  A    between atoms: _454  and  _455
REMARK  194  A    between atoms: _458  and  _460
REMARK  195  A    between atoms: _460  and  _461
REMARK  196  A    between atoms: _460  and  _463
REMARK  197  A    between atoms: _463  and  _464
REMARK  198  A    between atoms: _466  and  _468
REMARK  199  A    between atoms: _468  and  _469
REMARK  200  A    between atoms: _468  and  _471
REMARK  201  A    between atoms: _471  and  _472
REMARK  202  A    between atoms: _472  and  _473
REMARK  203  A    between atoms: _476  and  _478
REMARK  204  A    between atoms: _478  and  _479
REMARK  205  A    between atoms: _478  and  _481
REMARK  206  A    between atoms: _481  and  _482
REMARK  207  A    between atoms: _485  and  _487
REMARK  208  A    between atoms: _487  and  _488
REMARK  209  A    between atoms: _487  and  _490
REMARK  210  A    between atoms: _490  and  _491
REMARK  211  A    between atoms: _497  and  _499
REMARK  212  A    between atoms: _499  and  _500
REMARK  213  A    between atoms: _499  and  _502
REMARK  214  A    between atoms: _502  and  _503
REMARK  215  A    between atoms: _508  and  _509
REMARK  216  A    between atoms: _511  and  _513
REMARK  217  A    between atoms: _513  and  _514
REMARK  218  A    between atoms: _513  and  _516
REMARK  219  A    between atoms: _516  and  _517
REMARK  220  A    between atoms: _520  and  _522
REMARK  221  A    between atoms: _522  and  _523
REMARK  222  A    between atoms: _522  and  _525
REMARK  223  A    between atoms: _525  and  _526
REMARK  224  A    between atoms: _529  and  _531
REMARK  225  A    between atoms: _531  and  _532
REMARK  226  A    between atoms: _531  and  _534
REMARK  227  A    between atoms: _534  and  _535
REMARK  228  A    between atoms: _540  and  _542
REMARK  229  A    between atoms: _542  and  _543
REMARK  230  A    between atoms: _542  and  _545
REMARK                            x       y       z     vdW  Elec       q    Type
REMARK                         _______ _______ _______ _____ _____    ______ ____
ROOT
ATOM      1  O   HOH     1      17.730  50.411   9.960  0.00  0.00    +0.000 OA
ENDROOT
TORSDOF 0
REMARK  Name = ../refined-set-2016/1m0o/1m0o_pocket.pdb
REMARK  230 active torsions:
REMARK  status: ('A' for Active; 'I' for Inactive)
REMARK    1  A    between atoms: _1  and  _3
REMARK    2  A    between atoms: _3  and  _4
REMARK    3  A    between atoms: _3  and  _6
REMARK    4  A    between atoms: _6  and  _7
REMARK    5  A    between atoms: _10  and  _12
REMARK    6  A    between atoms: _12  and  _13
REMARK    7  A    between atoms: _15  and  _17
REMARK    8  A    between atoms: _17  and  _18
REMARK    9  A    between atoms: _17  and  _20
REMARK   10  A    between atoms: _20  and  _21
REMARK   11  A    between atoms: _21  and  _22
REMARK   12  A    between atoms: _27  and  _29
REMARK   13  A    between atoms: _29  and  _30
REMARK   14  A    between atoms: _29  and  _32
REMARK   15  A    between atoms: _32  and  _33
REMARK   16  A    between atoms: _33  and  _34
REMARK   17  A    between atoms: _36  and  _38
REMARK   18  A    between atoms: _38  and  _39
REMARK   19  A    between atoms: _38  and  _41
REMARK   20  A    between atoms: _41  and  _42
REMARK   21  A    between atoms: _44  and  _46
REMARK   22  A    between atoms: _46  and  _47
REMARK   23  A    between atoms: _46  and  _49
REMARK   24  A    between atoms: _49  and  _50
REMARK   25  A    between atoms: _52  and  _54
REMARK   26  A    between atoms: _54  and  _55
REMARK   27  A    between atoms: _54  and  _57
REMARK   28  A    between atoms: _57  and  _58
REMARK   29  A    between atoms: _61  and  _63
REMARK   30  A    between atoms: _63  and  _64
REMARK   31  A    between atoms: _66  and  _68
REMARK   32  A    between atoms: _68  and  _69
REMARK   33  A    between atoms: _72  and  _74
REMARK   34  A    between atoms: _74  and  _75
REMARK   35  A    between atoms: _74  and  _77
REMARK   36  A    between atoms: _77  and  _78
REMARK   37  A    between atoms: _78  and  _79
REMARK   38  A    between atoms: _82  and  _84
REMARK   39  A    between atoms: _84  and  _85
REMARK   40  A    between atoms: _84  and  _87
REMARK   41  A    between atoms: _87  and  _88
REMARK   42  A    between atoms: _90  and  _92
REMARK   43  A    between atoms: _92  and  _93
REMARK   44  A    between atoms: _92  and  _95
REMARK   45  A    between atoms: _95  and  _96
REMARK   46  A    between atoms: _101  and  _103
REMARK   47  A    between atoms: _103  and  _104
REMARK   48  A    between atoms: _103  and  _106
REMARK   49  A    between atoms: _106  and  _107
REMARK   50  A    between atoms: _107  and  _108
REMARK   51  A    between atoms: _111  and  _113
REMARK   52  A    between atoms: _113  and  _114
REMARK   53  A    between atoms: _113  and  _116
REMARK   54  A    between atoms: _116  and  _117
REMARK   55  A    between atoms: _119  and  _121
REMARK   56  A    between atoms: _121  and  _122
REMARK   57  A    between atoms: _121  and  _124
REMARK   58  A    between atoms: _124  and  _125
REMARK   59  A    between atoms: _135  and  _137
REMARK   60  A    between atoms: _137  and  _138
REMARK   61  A    between atoms: _137  and  _140
REMARK   62  A    between atoms: _140  and  _141
REMARK   63  A    between atoms: _146  and  _148
REMARK   64  A    between atoms: _148  and  _149
REMARK   65  A    between atoms: _151  and  _153
REMARK   66  A    between atoms: _153  and  _154
REMARK   67  A    between atoms: _153  and  _156
REMARK   68  A    between atoms: _156  and  _157
REMARK   69  A    between atoms: _157  and  _158
REMARK   70  A    between atoms: _160  and  _162
REMARK   71  A    between atoms: _162  and  _163
REMARK   72  A    between atoms: _162  and  _165
REMARK   73  A    between atoms: _165  and  _166
REMARK   74  A    between atoms: _169  and  _171
REMARK   75  A    between atoms: _171  and  _172
REMARK   76  A    between atoms: _175  and  _177
REMARK   77  A    between atoms: _177  and  _178
REMARK   78  A    between atoms: _177  and  _180
REMARK   79  A    between atoms: _180  and  _181
REMARK   80  A    between atoms: _184  and  _186
REMARK   81  A    between atoms: _186  and  _187
REMARK   82  A    between atoms: _186  and  _189
REMARK   83  A    between atoms: _189  and  _190
REMARK   84  A    between atoms: _192  and  _194
REMARK   85  A    between atoms: _194  and  _195
REMARK   86  A    between atoms: _198  and  _200
REMARK   87  A    between atoms: _200  and  _201
REMARK   88  A    between atoms: _200  and  _203
REMARK   89  A    between atoms: _203  and  _205
REMARK   90  A    between atoms: _207  and  _209
REMARK   91  A    between atoms: _209  and  _210
REMARK   92  A    between atoms: _213  and  _215
REMARK   93  A    between atoms: _215  and  _216
REMARK   94  A    between atoms: _215  and  _218
REMARK   95  A    between atoms: _218  and  _219
REMARK   96  A    between atoms: _219  and  _220
REMARK   97  A    between atoms: _224  and  _225
REMARK   98  A    between atoms: _230  and  _232
REMARK   99  A    between atoms: _232  and  _233
REMARK  100  A    between atoms: _232  and  _235
REMARK  101  A    between atoms: _235  and  _236
REMARK  102  A    between atoms: _239  and  _241
REMARK  103  A    between atoms: _241  and  _242
REMARK  104  A    between atoms: _241  and  _244
REMARK  105  A    between atoms: _244  and  _245
REMARK  106  A    between atoms: _248  and  _250
REMARK  107  A    between atoms: _250  and  _251
REMARK  108  A    between atoms: _250  and  _253
REMARK  109  A    between atoms: _253  and  _254
REMARK  110  A    between atoms: _256  and  _258
REMARK  111  A    between atoms: _258  and  _259
REMARK  112  A    between atoms: _258  and  _261
REMARK  113  A    between atoms: _261  and  _262
REMARK  114  A    between atoms: _264  and  _266
REMARK  115  A    between atoms: _266  and  _267
REMARK  116  A    between atoms: _269  and  _271
REMARK  117  A    between atoms: _271  and  _272
REMARK  118  A    between atoms: _274  and  _276
REMARK  119  A    between atoms: _276  and  _277
REMARK  120  A    between atoms: _276  and  _279
REMARK  121  A    between atoms: _279  and  _280
REMARK  122  A    between atoms: _283  and  _285
REMARK  123  A    between atoms: _285  and  _286
REMARK  124  A    between atoms: _285  and  _288
REMARK  125  A    between atoms: _288  and  _289
REMARK  126  A    between atoms: _289  and  _290
REMARK  127  A    between atoms: _293  and  _295
REMARK  128  A    between atoms: _295  and  _296
REMARK  129  A    between atoms: _299  and  _301
REMARK  130  A    between atoms: _301  and  _302
REMARK  131  A    between atoms: _301  and  _304
REMARK  132  A    between atoms: _304  and  _305
REMARK  133  A    between atoms: _305  and  _306
REMARK  134  A    between atoms: _311  and  _313
REMARK  135  A    between atoms: _313  and  _314
REMARK  136  A    between atoms: _313  and  _316
REMARK  137  A    between atoms: _316  and  _317
REMARK  138  A    between atoms: _320  and  _322
REMARK  139  A    between atoms: _322  and  _323
REMARK  140  A    between atoms: _322  and  _325
REMARK  141  A    between atoms: _325  and  _326
REMARK  142  A    between atoms: _329  and  _331
REMARK  143  A    between atoms: _331  and  _332
REMARK  144  A    between atoms: _331  and  _334
REMARK  145  A    between atoms: _334  and  _335
REMARK  146  A    between atoms: _338  and  _340
REMARK  147  A    between atoms: _340  and  _341
REMARK  148  A    between atoms: _340  and  _343
REMARK  149  A    between atoms: _343  and  _344
REMARK  150  A    between atoms: _346  and  _348
REMARK  151  A    between atoms: _348  and  _349
REMARK  152  A    between atoms: _348  and  _351
REMARK  153  A    between atoms: _351  and  _352
REMARK  154  A    between atoms: _352  and  _353
REMARK  155  A    between atoms: _353  and  _354
REMARK  156  A    between atoms: _354  and  _355
REMARK  157  A    between atoms: _360  and  _361
REMARK  158  A    between atoms: _366  and  _368
REMARK  159  A    between atoms: _368  and  _369
REMARK  160  A    between atoms: _368  and  _371
REMARK  161  A    between atoms: _371  and  _372
REMARK  162  A    between atoms: _375  and  _377
REMARK  163  A    between atoms: _377  and  _378
REMARK  164  A    between atoms: _381  and  _383
REMARK  165  A    between atoms: _383  and  _384
REMARK  166  A    between atoms: _383  and  _386
REMARK  167  A    between atoms: _386  and  _387
REMARK  168  A    between atoms: _392  and  _394
REMARK  169  A    between atoms: _394  and  _395
REMARK  170  A    between atoms: _394  and  _397
REMARK  171  A    between atoms: _400  and  _402
REMARK  172  A    between atoms: _402  and  _403
REMARK  173  A    between atoms: _402  and  _405
REMARK  174  A    between atoms: _405  and  _406
REMARK  175  A    between atoms: _406  and  _407
REMARK  176  A    between atoms: _407  and  _408
REMARK  177  A    between atoms: _417  and  _419
REMARK  178  A    between atoms: _419  and  _420
REMARK  179  A    between atoms: _419  and  _422
REMARK  180  A    between atoms: _422  and  _423
REMARK  181  A    between atoms: _428  and  _430
REMARK  182  A    between atoms: _430  and  _431
REMARK  183  A    between atoms: _430  and  _433
REMARK  184  A    between atoms: _433  and  _434
REMARK  185  A    between atoms: _440  and  _442
REMARK  186  A    between atoms: _442  and  _443
REMARK  187  A    between atoms: _442  and  _445
REMARK  188  A    between atoms: _445  and  _446
REMARK  189  A    between atoms: _448  and  _450
REMARK  190  A    between atoms: _450  and  _451
REMARK  191  A    between atoms: _450  and  _453
REMARK  192  A    between atoms: _453  and  _454
REMARK  193  A    between atoms: _454  and  _455
REMARK  194  A    between atoms: _458  and  _460
REMARK  195  A    between atoms: _460  and  _461
REMARK  196  A    between atoms: _460  and  _463
REMARK  197  A    between atoms: _463  and  _464
REMARK  198  A    between atoms: _466  and  _468
REMARK  199  A    between atoms: _468  and  _469
REMARK  200  A    between atoms: _468  and  _471
REMARK  201  A    between atoms: _471  and  _472
REMARK  202  A    between atoms: _472  and  _473
REMARK  203  A    between atoms: _476  and  _478
REMARK  204  A    between atoms: _478  and  _479
REMARK  205  A    between atoms: _478  and  _481
REMARK  206  A    between atoms: _481  and  _482
REMARK  207  A    between atoms: _485  and  _487
REMARK  208  A    between atoms: _487  and  _488
REMARK  209  A    between atoms: _487  and  _490
REMARK  210  A    between atoms: _490  and  _491
REMARK  211  A    between atoms: _497  and  _499
REMARK  212  A    between atoms: _499  and  _500
REMARK  213  A    between atoms: _499  and  _502
REMARK  214  A    between atoms: _502  and  _503
REMARK  215  A    between atoms: _508  and  _509
REMARK  216  A    between atoms: _511  and  _513
REMARK  217  A    between atoms: _513  and  _514
REMARK  218  A    between atoms: _513  and  _516
REMARK  219  A    between atoms: _516  and  _517
REMARK  220  A    between atoms: _520  and  _522
REMARK  221  A    between atoms: _522  and  _523
REMARK  222  A    between atoms: _522  and  _525
REMARK  223  A    between atoms: _525  and  _526
REMARK  224  A    between atoms: _529  and  _531
REMARK  225  A    between atoms: _531  and  _532
REMARK  226  A    between atoms: _531  and  _534
REMARK  227  A    between atoms: _534  and  _535
REMARK  228  A    between atoms: _540  and  _542
REMARK  229  A    between atoms: _542  and  _543
REMARK  230  A    between atoms: _542  and  _545
REMARK                            x       y       z     vdW  Elec       q    Type
REMARK                         _______ _______ _______ _____ _____    ______ ____
ROOT
ATOM      1  O   HOH     1      20.547  45.186  17.635  0.00  0.00    +0.000 OA
ENDROOT
TORSDOF 0
REMARK  Name = ../refined-set-2016/1m0o/1m0o_pocket.pdb
REMARK  230 active torsions:
REMARK  status: ('A' for Active; 'I' for Inactive)
REMARK    1  A    between atoms: _1  and  _3
REMARK    2  A    between atoms: _3  and  _4
REMARK    3  A    between atoms: _3  and  _6
REMARK    4  A    between atoms: _6  and  _7
REMARK    5  A    between atoms: _10  and  _12
REMARK    6  A    between atoms: _12  and  _13
REMARK    7  A    between atoms: _15  and  _17
REMARK    8  A    between atoms: _17  and  _18
REMARK    9  A    between atoms: _17  and  _20
REMARK   10  A    between atoms: _20  and  _21
REMARK   11  A    between atoms: _21  and  _22
REMARK   12  A    between atoms: _27  and  _29
REMARK   13  A    between atoms: _29  and  _30
REMARK   14  A    between atoms: _29  and  _32
REMARK   15  A    between atoms: _32  and  _33
REMARK   16  A    between atoms: _33  and  _34
REMARK   17  A    between atoms: _36  and  _38
REMARK   18  A    between atoms: _38  and  _39
REMARK   19  A    between atoms: _38  and  _41
REMARK   20  A    between atoms: _41  and  _42
REMARK   21  A    between atoms: _44  and  _46
REMARK   22  A    between atoms: _46  and  _47
REMARK   23  A    between atoms: _46  and  _49
REMARK   24  A    between atoms: _49  and  _50
REMARK   25  A    between atoms: _52  and  _54
REMARK   26  A    between atoms: _54  and  _55
REMARK   27  A    between atoms: _54  and  _57
REMARK   28  A    between atoms: _57  and  _58
REMARK   29  A    between atoms: _61  and  _63
REMARK   30  A    between atoms: _63  and  _64
REMARK   31  A    between atoms: _66  and  _68
REMARK   32  A    between atoms: _68  and  _69
REMARK   33  A    between atoms: _72  and  _74
REMARK   34  A    between atoms: _74  and  _75
REMARK   35  A    between atoms: _74  and  _77
REMARK   36  A    between atoms: _77  and  _78
REMARK   37  A    between atoms: _78  and  _79
REMARK   38  A    between atoms: _82  and  _84
REMARK   39  A    between atoms: _84  and  _85
REMARK   40  A    between atoms: _84  and  _87
REMARK   41  A    between atoms: _87  and  _88
REMARK   42  A    between atoms: _90  and  _92
REMARK   43  A    between atoms: _92  and  _93
REMARK   44  A    between atoms: _92  and  _95
REMARK   45  A    between atoms: _95  and  _96
REMARK   46  A    between atoms: _101  and  _103
REMARK   47  A    between atoms: _103  and  _104
REMARK   48  A    between atoms: _103  and  _106
REMARK   49  A    between atoms: _106  and  _107
REMARK   50  A    between atoms: _107  and  _108
REMARK   51  A    between atoms: _111  and  _113
REMARK   52  A    between atoms: _113  and  _114
REMARK   53  A    between atoms: _113  and  _116
REMARK   54  A    between atoms: _116  and  _117
REMARK   55  A    between atoms: _119  and  _121
REMARK   56  A    between atoms: _121  and  _122
REMARK   57  A    between atoms: _121  and  _124
REMARK   58  A    between atoms: _124  and  _125
REMARK   59  A    between atoms: _135  and  _137
REMARK   60  A    between atoms: _137  and  _138
REMARK   61  A    between atoms: _137  and  _140
REMARK   62  A    between atoms: _140  and  _141
REMARK   63  A    between atoms: _146  and  _148
REMARK   64  A    between atoms: _148  and  _149
REMARK   65  A    between atoms: _151  and  _153
REMARK   66  A    between atoms: _153  and  _154
REMARK   67  A    between atoms: _153  and  _156
REMARK   68  A    between atoms: _156  and  _157
REMARK   69  A    between atoms: _157  and  _158
REMARK   70  A    between atoms: _160  and  _162
REMARK   71  A    between atoms: _162  and  _163
REMARK   72  A    between atoms: _162  and  _165
REMARK   73  A    between atoms: _165  and  _166
REMARK   74  A    between atoms: _169  and  _171
REMARK   75  A    between atoms: _171  and  _172
REMARK   76  A    between atoms: _175  and  _177
REMARK   77  A    between atoms: _177  and  _178
REMARK   78  A    between atoms: _177  and  _180
REMARK   79  A    between atoms: _180  and  _181
REMARK   80  A    between atoms: _184  and  _186
REMARK   81  A    between atoms: _186  and  _187
REMARK   82  A    between atoms: _186  and  _189
REMARK   83  A    between atoms: _189  and  _190
REMARK   84  A    between atoms: _192  and  _194
REMARK   85  A    between atoms: _194  and  _195
REMARK   86  A    between atoms: _198  and  _200
REMARK   87  A    between atoms: _200  and  _201
REMARK   88  A    between atoms: _200  and  _203
REMARK   89  A    between atoms: _203  and  _205
REMARK   90  A    between atoms: _207  and  _209
REMARK   91  A    between atoms: _209  and  _210
REMARK   92  A    between atoms: _213  and  _215
REMARK   93  A    between atoms: _215  and  _216
REMARK   94  A    between atoms: _215  and  _218
REMARK   95  A    between atoms: _218  and  _219
REMARK   96  A    between atoms: _219  and  _220
REMARK   97  A    between atoms: _224  and  _225
REMARK   98  A    between atoms: _230  and  _232
REMARK   99  A    between atoms: _232  and  _233
REMARK  100  A    between atoms: _232  and  _235
REMARK  101  A    between atoms: _235  and  _236
REMARK  102  A    between atoms: _239  and  _241
REMARK  103  A    between atoms: _241  and  _242
REMARK  104  A    between atoms: _241  and  _244
REMARK  105  A    between atoms: _244  and  _245
REMARK  106  A    between atoms: _248  and  _250
REMARK  107  A    between atoms: _250  and  _251
REMARK  108  A    between atoms: _250  and  _253
REMARK  109  A    between atoms: _253  and  _254
REMARK  110  A    between atoms: _256  and  _258
REMARK  111  A    between atoms: _258  and  _259
REMARK  112  A    between atoms: _258  and  _261
REMARK  113  A    between atoms: _261  and  _262
REMARK  114  A    between atoms: _264  and  _266
REMARK  115  A    between atoms: _266  and  _267
REMARK  116  A    between atoms: _269  and  _271
REMARK  117  A    between atoms: _271  and  _272
REMARK  118  A    between atoms: _274  and  _276
REMARK  119  A    between atoms: _276  and  _277
REMARK  120  A    between atoms: _276  and  _279
REMARK  121  A    between atoms: _279  and  _280
REMARK  122  A    between atoms: _283  and  _285
REMARK  123  A    between atoms: _285  and  _286
REMARK  124  A    between atoms: _285  and  _288
REMARK  125  A    between atoms: _288  and  _289
REMARK  126  A    between atoms: _289  and  _290
REMARK  127  A    between atoms: _293  and  _295
REMARK  128  A    between atoms: _295  and  _296
REMARK  129  A    between atoms: _299  and  _301
REMARK  130  A    between atoms: _301  and  _302
REMARK  131  A    between atoms: _301  and  _304
REMARK  132  A    between atoms: _304  and  _305
REMARK  133  A    between atoms: _305  and  _306
REMARK  134  A    between atoms: _311  and  _313
REMARK  135  A    between atoms: _313  and  _314
REMARK  136  A    between atoms: _313  and  _316
REMARK  137  A    between atoms: _316  and  _317
REMARK  138  A    between atoms: _320  and  _322
REMARK  139  A    between atoms: _322  and  _323
REMARK  140  A    between atoms: _322  and  _325
REMARK  141  A    between atoms: _325  and  _326
REMARK  142  A    between atoms: _329  and  _331
REMARK  143  A    between atoms: _331  and  _332
REMARK  144  A    between atoms: _331  and  _334
REMARK  145  A    between atoms: _334  and  _335
REMARK  146  A    between atoms: _338  and  _340
REMARK  147  A    between atoms: _340  and  _341
REMARK  148  A    between atoms: _340  and  _343
REMARK  149  A    between atoms: _343  and  _344
REMARK  150  A    between atoms: _346  and  _348
REMARK  151  A    between atoms: _348  and  _349
REMARK  152  A    between atoms: _348  and  _351
REMARK  153  A    between atoms: _351  and  _352
REMARK  154  A    between atoms: _352  and  _353
REMARK  155  A    between atoms: _353  and  _354
REMARK  156  A    between atoms: _354  and  _355
REMARK  157  A    between atoms: _360  and  _361
REMARK  158  A    between atoms: _366  and  _368
REMARK  159  A    between atoms: _368  and  _369
REMARK  160  A    between atoms: _368  and  _371
REMARK  161  A    between atoms: _371  and  _372
REMARK  162  A    between atoms: _375  and  _377
REMARK  163  A    between atoms: _377  and  _378
REMARK  164  A    between atoms: _381  and  _383
REMARK  165  A    between atoms: _383  and  _384
REMARK  166  A    between atoms: _383  and  _386
REMARK  167  A    between atoms: _386  and  _387
REMARK  168  A    between atoms: _392  and  _394
REMARK  169  A    between atoms: _394  and  _395
REMARK  170  A    between atoms: _394  and  _397
REMARK  171  A    between atoms: _400  and  _402
REMARK  172  A    between atoms: _402  and  _403
REMARK  173  A    between atoms: _402  and  _405
REMARK  174  A    between atoms: _405  and  _406
REMARK  175  A    between atoms: _406  and  _407
REMARK  176  A    between atoms: _407  and  _408
REMARK  177  A    between atoms: _417  and  _419
REMARK  178  A    between atoms: _419  and  _420
REMARK  179  A    between atoms: _419  and  _422
REMARK  180  A    between atoms: _422  and  _423
REMARK  181  A    between atoms: _428  and  _430
REMARK  182  A    between atoms: _430  and  _431
REMARK  183  A    between atoms: _430  and  _433
REMARK  184  A    between atoms: _433  and  _434
REMARK  185  A    between atoms: _440  and  _442
REMARK  186  A    between atoms: _442  and  _443
REMARK  187  A    between atoms: _442  and  _445
REMARK  188  A    between atoms: _445  and  _446
REMARK  189  A    between atoms: _448  and  _450
REMARK  190  A    between atoms: _450  and  _451
REMARK  191  A    between atoms: _450  and  _453
REMARK  192  A    between atoms: _453  and  _454
REMARK  193  A    between atoms: _454  and  _455
REMARK  194  A    between atoms: _458  and  _460
REMARK  195  A    between atoms: _460  and  _461
REMARK  196  A    between atoms: _460  and  _463
REMARK  197  A    between atoms: _463  and  _464
REMARK  198  A    between atoms: _466  and  _468
REMARK  199  A    between atoms: _468  and  _469
REMARK  200  A    between atoms: _468  and  _471
REMARK  201  A    between atoms: _471  and  _472
REMARK  202  A    between atoms: _472  and  _473
REMARK  203  A    between atoms: _476  and  _478
REMARK  204  A    between atoms: _478  and  _479
REMARK  205  A    between atoms: _478  and  _481
REMARK  206  A    between atoms: _481  and  _482
REMARK  207  A    between atoms: _485  and  _487
REMARK  208  A    between atoms: _487  and  _488
REMARK  209  A    between atoms: _487  and  _490
REMARK  210  A    between atoms: _490  and  _491
REMARK  211  A    between atoms: _497  and  _499
REMARK  212  A    between atoms: _499  and  _500
REMARK  213  A    between atoms: _499  and  _502
REMARK  214  A    between atoms: _502  and  _503
REMARK  215  A    between atoms: _508  and  _509
REMARK  216  A    between atoms: _511  and  _513
REMARK  217  A    between atoms: _513  and  _514
REMARK  218  A    between atoms: _513  and  _516
REMARK  219  A    between atoms: _516  and  _517
REMARK  220  A    between atoms: _520  and  _522
REMARK  221  A    between atoms: _522  and  _523
REMARK  222  A    between atoms: _522  and  _525
REMARK  223  A    between atoms: _525  and  _526
REMARK  224  A    between atoms: _529  and  _531
REMARK  225  A    between atoms: _531  and  _532
REMARK  226  A    between atoms: _531  and  _534
REMARK  227  A    between atoms: _534  and  _535
REMARK  228  A    between atoms: _540  and  _542
REMARK  229  A    between atoms: _542  and  _543
REMARK  230  A    between atoms: _542  and  _545
REMARK                            x       y       z     vdW  Elec       q    Type
REMARK                         _______ _______ _______ _____ _____    ______ ____
ROOT
ATOM      1  O   HOH     1      15.625  61.166  12.565  0.00  0.00    +0.000 OA
ENDROOT
TORSDOF 0
REMARK  Name = ../refined-set-2016/1m0o/1m0o_pocket.pdb
REMARK  230 active torsions:
REMARK  status: ('A' for Active; 'I' for Inactive)
REMARK    1  A    between atoms: _1  and  _3
REMARK    2  A    between atoms: _3  and  _4
REMARK    3  A    between atoms: _3  and  _6
REMARK    4  A    between atoms: _6  and  _7
REMARK    5  A    between atoms: _10  and  _12
REMARK    6  A    between atoms: _12  and  _13
REMARK    7  A    between atoms: _15  and  _17
REMARK    8  A    between atoms: _17  and  _18
REMARK    9  A    between atoms: _17  and  _20
REMARK   10  A    between atoms: _20  and  _21
REMARK   11  A    between atoms: _21  and  _22
REMARK   12  A    between atoms: _27  and  _29
REMARK   13  A    between atoms: _29  and  _30
REMARK   14  A    between atoms: _29  and  _32
REMARK   15  A    between atoms: _32  and  _33
REMARK   16  A    between atoms: _33  and  _34
REMARK   17  A    between atoms: _36  and  _38
REMARK   18  A    between atoms: _38  and  _39
REMARK   19  A    between atoms: _38  and  _41
REMARK   20  A    between atoms: _41  and  _42
REMARK   21  A    between atoms: _44  and  _46
REMARK   22  A    between atoms: _46  and  _47
REMARK   23  A    between atoms: _46  and  _49
REMARK   24  A    between atoms: _49  and  _50
REMARK   25  A    between atoms: _52  and  _54
REMARK   26  A    between atoms: _54  and  _55
REMARK   27  A    between atoms: _54  and  _57
REMARK   28  A    between atoms: _57  and  _58
REMARK   29  A    between atoms: _61  and  _63
REMARK   30  A    between atoms: _63  and  _64
REMARK   31  A    between atoms: _66  and  _68
REMARK   32  A    between atoms: _68  and  _69
REMARK   33  A    between atoms: _72  and  _74
REMARK   34  A    between atoms: _74  and  _75
REMARK   35  A    between atoms: _74  and  _77
REMARK   36  A    between atoms: _77  and  _78
REMARK   37  A    between atoms: _78  and  _79
REMARK   38  A    between atoms: _82  and  _84
REMARK   39  A    between atoms: _84  and  _85
REMARK   40  A    between atoms: _84  and  _87
REMARK   41  A    between atoms: _87  and  _88
REMARK   42  A    between atoms: _90  and  _92
REMARK   43  A    between atoms: _92  and  _93
REMARK   44  A    between atoms: _92  and  _95
REMARK   45  A    between atoms: _95  and  _96
REMARK   46  A    between atoms: _101  and  _103
REMARK   47  A    between atoms: _103  and  _104
REMARK   48  A    between atoms: _103  and  _106
REMARK   49  A    between atoms: _106  and  _107
REMARK   50  A    between atoms: _107  and  _108
REMARK   51  A    between atoms: _111  and  _113
REMARK   52  A    between atoms: _113  and  _114
REMARK   53  A    between atoms: _113  and  _116
REMARK   54  A    between atoms: _116  and  _117
REMARK   55  A    between atoms: _119  and  _121
REMARK   56  A    between atoms: _121  and  _122
REMARK   57  A    between atoms: _121  and  _124
REMARK   58  A    between atoms: _124  and  _125
REMARK   59  A    between atoms: _135  and  _137
REMARK   60  A    between atoms: _137  and  _138
REMARK   61  A    between atoms: _137  and  _140
REMARK   62  A    between atoms: _140  and  _141
REMARK   63  A    between atoms: _146  and  _148
REMARK   64  A    between atoms: _148  and  _149
REMARK   65  A    between atoms: _151  and  _153
REMARK   66  A    between atoms: _153  and  _154
REMARK   67  A    between atoms: _153  and  _156
REMARK   68  A    between atoms: _156  and  _157
REMARK   69  A    between atoms: _157  and  _158
REMARK   70  A    between atoms: _160  and  _162
REMARK   71  A    between atoms: _162  and  _163
REMARK   72  A    between atoms: _162  and  _165
REMARK   73  A    between atoms: _165  and  _166
REMARK   74  A    between atoms: _169  and  _171
REMARK   75  A    between atoms: _171  and  _172
REMARK   76  A    between atoms: _175  and  _177
REMARK   77  A    between atoms: _177  and  _178
REMARK   78  A    between atoms: _177  and  _180
REMARK   79  A    between atoms: _180  and  _181
REMARK   80  A    between atoms: _184  and  _186
REMARK   81  A    between atoms: _186  and  _187
REMARK   82  A    between atoms: _186  and  _189
REMARK   83  A    between atoms: _189  and  _190
REMARK   84  A    between atoms: _192  and  _194
REMARK   85  A    between atoms: _194  and  _195
REMARK   86  A    between atoms: _198  and  _200
REMARK   87  A    between atoms: _200  and  _201
REMARK   88  A    between atoms: _200  and  _203
REMARK   89  A    between atoms: _203  and  _205
REMARK   90  A    between atoms: _207  and  _209
REMARK   91  A    between atoms: _209  and  _210
REMARK   92  A    between atoms: _213  and  _215
REMARK   93  A    between atoms: _215  and  _216
REMARK   94  A    between atoms: _215  and  _218
REMARK   95  A    between atoms: _218  and  _219
REMARK   96  A    between atoms: _219  and  _220
REMARK   97  A    between atoms: _224  and  _225
REMARK   98  A    between atoms: _230  and  _232
REMARK   99  A    between atoms: _232  and  _233
REMARK  100  A    between atoms: _232  and  _235
REMARK  101  A    between atoms: _235  and  _236
REMARK  102  A    between atoms: _239  and  _241
REMARK  103  A    between atoms: _241  and  _242
REMARK  104  A    between atoms: _241  and  _244
REMARK  105  A    between atoms: _244  and  _245
REMARK  106  A    between atoms: _248  and  _250
REMARK  107  A    between atoms: _250  and  _251
REMARK  108  A    between atoms: _250  and  _253
REMARK  109  A    between atoms: _253  and  _254
REMARK  110  A    between atoms: _256  and  _258
REMARK  111  A    between atoms: _258  and  _259
REMARK  112  A    between atoms: _258  and  _261
REMARK  113  A    between atoms: _261  and  _262
REMARK  114  A    between atoms: _264  and  _266
REMARK  115  A    between atoms: _266  and  _267
REMARK  116  A    between atoms: _269  and  _271
REMARK  117  A    between atoms: _271  and  _272
REMARK  118  A    between atoms: _274  and  _276
REMARK  119  A    between atoms: _276  and  _277
REMARK  120  A    between atoms: _276  and  _279
REMARK  121  A    between atoms: _279  and  _280
REMARK  122  A    between atoms: _283  and  _285
REMARK  123  A    between atoms: _285  and  _286
REMARK  124  A    between atoms: _285  and  _288
REMARK  125  A    between atoms: _288  and  _289
REMARK  126  A    between atoms: _289  and  _290
REMARK  127  A    between atoms: _293  and  _295
REMARK  128  A    between atoms: _295  and  _296
REMARK  129  A    between atoms: _299  and  _301
REMARK  130  A    between atoms: _301  and  _302
REMARK  131  A    between atoms: _301  and  _304
REMARK  132  A    between atoms: _304  and  _305
REMARK  133  A    between atoms: _305  and  _306
REMARK  134  A    between atoms: _311  and  _313
REMARK  135  A    between atoms: _313  and  _314
REMARK  136  A    between atoms: _313  and  _316
REMARK  137  A    between atoms: _316  and  _317
REMARK  138  A    between atoms: _320  and  _322
REMARK  139  A    between atoms: _322  and  _323
REMARK  140  A    between atoms: _322  and  _325
REMARK  141  A    between atoms: _325  and  _326
REMARK  142  A    between atoms: _329  and  _331
REMARK  143  A    between atoms: _331  and  _332
REMARK  144  A    between atoms: _331  and  _334
REMARK  145  A    between atoms: _334  and  _335
REMARK  146  A    between atoms: _338  and  _340
REMARK  147  A    between atoms: _340  and  _341
REMARK  148  A    between atoms: _340  and  _343
REMARK  149  A    between atoms: _343  and  _344
REMARK  150  A    between atoms: _346  and  _348
REMARK  151  A    between atoms: _348  and  _349
REMARK  152  A    between atoms: _348  and  _351
REMARK  153  A    between atoms: _351  and  _352
REMARK  154  A    between atoms: _352  and  _353
REMARK  155  A    between atoms: _353  and  _354
REMARK  156  A    between atoms: _354  and  _355
REMARK  157  A    between atoms: _360  and  _361
REMARK  158  A    between atoms: _366  and  _368
REMARK  159  A    between atoms: _368  and  _369
REMARK  160  A    between atoms: _368  and  _371
REMARK  161  A    between atoms: _371  and  _372
REMARK  162  A    between atoms: _375  and  _377
REMARK  163  A    between atoms: _377  and  _378
REMARK  164  A    between atoms: _381  and  _383
REMARK  165  A    between atoms: _383  and  _384
REMARK  166  A    between atoms: _383  and  _386
REMARK  167  A    between atoms: _386  and  _387
REMARK  168  A    between atoms: _392  and  _394
REMARK  169  A    between atoms: _394  and  _395
REMARK  170  A    between atoms: _394  and  _397
REMARK  171  A    between atoms: _400  and  _402
REMARK  172  A    between atoms: _402  and  _403
REMARK  173  A    between atoms: _402  and  _405
REMARK  174  A    between atoms: _405  and  _406
REMARK  175  A    between atoms: _406  and  _407
REMARK  176  A    between atoms: _407  and  _408
REMARK  177  A    between atoms: _417  and  _419
REMARK  178  A    between atoms: _419  and  _420
REMARK  179  A    between atoms: _419  and  _422
REMARK  180  A    between atoms: _422  and  _423
REMARK  181  A    between atoms: _428  and  _430
REMARK  182  A    between atoms: _430  and  _431
REMARK  183  A    between atoms: _430  and  _433
REMARK  184  A    between atoms: _433  and  _434
REMARK  185  A    between atoms: _440  and  _442
REMARK  186  A    between atoms: _442  and  _443
REMARK  187  A    between atoms: _442  and  _445
REMARK  188  A    between atoms: _445  and  _446
REMARK  189  A    between atoms: _448  and  _450
REMARK  190  A    between atoms: _450  and  _451
REMARK  191  A    between atoms: _450  and  _453
REMARK  192  A    between atoms: _453  and  _454
REMARK  193  A    between atoms: _454  and  _455
REMARK  194  A    between atoms: _458  and  _460
REMARK  195  A    between atoms: _460  and  _461
REMARK  196  A    between atoms: _460  and  _463
REMARK  197  A    between atoms: _463  and  _464
REMARK  198  A    between atoms: _466  and  _468
REMARK  199  A    between atoms: _468  and  _469
REMARK  200  A    between atoms: _468  and  _471
REMARK  201  A    between atoms: _471  and  _472
REMARK  202  A    between atoms: _472  and  _473
REMARK  203  A    between atoms: _476  and  _478
REMARK  204  A    between atoms: _478  and  _479
REMARK  205  A    between atoms: _478  and  _481
REMARK  206  A    between atoms: _481  and  _482
REMARK  207  A    between atoms: _485  and  _487
REMARK  208  A    between atoms: _487  and  _488
REMARK  209  A    between atoms: _487  and  _490
REMARK  210  A    between atoms: _490  and  _491
REMARK  211  A    between atoms: _497  and  _499
REMARK  212  A    between atoms: _499  and  _500
REMARK  213  A    between atoms: _499  and  _502
REMARK  214  A    between atoms: _502  and  _503
REMARK  215  A    between atoms: _508  and  _509
REMARK  216  A    between atoms: _511  and  _513
REMARK  217  A    between atoms: _513  and  _514
REMARK  218  A    between atoms: _513  and  _516
REMARK  219  A    between atoms: _516  and  _517
REMARK  220  A    between atoms: _520  and  _522
REMARK  221  A    between atoms: _522  and  _523
REMARK  222  A    between atoms: _522  and  _525
REMARK  223  A    between atoms: _525  and  _526
REMARK  224  A    between atoms: _529  and  _531
REMARK  225  A    between atoms: _531  and  _532
REMARK  226  A    between atoms: _531  and  _534
REMARK  227  A    between atoms: _534  and  _535
REMARK  228  A    between atoms: _540  and  _542
REMARK  229  A    between atoms: _542  and  _543
REMARK  230  A    between atoms: _542  and  _545
REMARK                            x       y       z     vdW  Elec       q    Type
REMARK                         _______ _______ _______ _____ _____    ______ ____
ROOT
ATOM      1  O   HOH     1      20.532  51.473  19.247  0.00  0.00    +0.000 OA
ENDROOT
TORSDOF 0
REMARK  Name = ../refined-set-2016/1m0o/1m0o_pocket.pdb
REMARK  230 active torsions:
REMARK  status: ('A' for Active; 'I' for Inactive)
REMARK    1  A    between atoms: _1  and  _3
REMARK    2  A    between atoms: _3  and  _4
REMARK    3  A    between atoms: _3  and  _6
REMARK    4  A    between atoms: _6  and  _7
REMARK    5  A    between atoms: _10  and  _12
REMARK    6  A    between atoms: _12  and  _13
REMARK    7  A    between atoms: _15  and  _17
REMARK    8  A    between atoms: _17  and  _18
REMARK    9  A    between atoms: _17  and  _20
REMARK   10  A    between atoms: _20  and  _21
REMARK   11  A    between atoms: _21  and  _22
REMARK   12  A    between atoms: _27  and  _29
REMARK   13  A    between atoms: _29  and  _30
REMARK   14  A    between atoms: _29  and  _32
REMARK   15  A    between atoms: _32  and  _33
REMARK   16  A    between atoms: _33  and  _34
REMARK   17  A    between atoms: _36  and  _38
REMARK   18  A    between atoms: _38  and  _39
REMARK   19  A    between atoms: _38  and  _41
REMARK   20  A    between atoms: _41  and  _42
REMARK   21  A    between atoms: _44  and  _46
REMARK   22  A    between atoms: _46  and  _47
REMARK   23  A    between atoms: _46  and  _49
REMARK   24  A    between atoms: _49  and  _50
REMARK   25  A    between atoms: _52  and  _54
REMARK   26  A    between atoms: _54  and  _55
REMARK   27  A    between atoms: _54  and  _57
REMARK   28  A    between atoms: _57  and  _58
REMARK   29  A    between atoms: _61  and  _63
REMARK   30  A    between atoms: _63  and  _64
REMARK   31  A    between atoms: _66  and  _68
REMARK   32  A    between atoms: _68  and  _69
REMARK   33  A    between atoms: _72  and  _74
REMARK   34  A    between atoms: _74  and  _75
REMARK   35  A    between atoms: _74  and  _77
REMARK   36  A    between atoms: _77  and  _78
REMARK   37  A    between atoms: _78  and  _79
REMARK   38  A    between atoms: _82  and  _84
REMARK   39  A    between atoms: _84  and  _85
REMARK   40  A    between atoms: _84  and  _87
REMARK   41  A    between atoms: _87  and  _88
REMARK   42  A    between atoms: _90  and  _92
REMARK   43  A    between atoms: _92  and  _93
REMARK   44  A    between atoms: _92  and  _95
REMARK   45  A    between atoms: _95  and  _96
REMARK   46  A    between atoms: _101  and  _103
REMARK   47  A    between atoms: _103  and  _104
REMARK   48  A    between atoms: _103  and  _106
REMARK   49  A    between atoms: _106  and  _107
REMARK   50  A    between atoms: _107  and  _108
REMARK   51  A    between atoms: _111  and  _113
REMARK   52  A    between atoms: _113  and  _114
REMARK   53  A    between atoms: _113  and  _116
REMARK   54  A    between atoms: _116  and  _117
REMARK   55  A    between atoms: _119  and  _121
REMARK   56  A    between atoms: _121  and  _122
REMARK   57  A    between atoms: _121  and  _124
REMARK   58  A    between atoms: _124  and  _125
REMARK   59  A    between atoms: _135  and  _137
REMARK   60  A    between atoms: _137  and  _138
REMARK   61  A    between atoms: _137  and  _140
REMARK   62  A    between atoms: _140  and  _141
REMARK   63  A    between atoms: _146  and  _148
REMARK   64  A    between atoms: _148  and  _149
REMARK   65  A    between atoms: _151  and  _153
REMARK   66  A    between atoms: _153  and  _154
REMARK   67  A    between atoms: _153  and  _156
REMARK   68  A    between atoms: _156  and  _157
REMARK   69  A    between atoms: _157  and  _158
REMARK   70  A    between atoms: _160  and  _162
REMARK   71  A    between atoms: _162  and  _163
REMARK   72  A    between atoms: _162  and  _165
REMARK   73  A    between atoms: _165  and  _166
REMARK   74  A    between atoms: _169  and  _171
REMARK   75  A    between atoms: _171  and  _172
REMARK   76  A    between atoms: _175  and  _177
REMARK   77  A    between atoms: _177  and  _178
REMARK   78  A    between atoms: _177  and  _180
REMARK   79  A    between atoms: _180  and  _181
REMARK   80  A    between atoms: _184  and  _186
REMARK   81  A    between atoms: _186  and  _187
REMARK   82  A    between atoms: _186  and  _189
REMARK   83  A    between atoms: _189  and  _190
REMARK   84  A    between atoms: _192  and  _194
REMARK   85  A    between atoms: _194  and  _195
REMARK   86  A    between atoms: _198  and  _200
REMARK   87  A    between atoms: _200  and  _201
REMARK   88  A    between atoms: _200  and  _203
REMARK   89  A    between atoms: _203  and  _205
REMARK   90  A    between atoms: _207  and  _209
REMARK   91  A    between atoms: _209  and  _210
REMARK   92  A    between atoms: _213  and  _215
REMARK   93  A    between atoms: _215  and  _216
REMARK   94  A    between atoms: _215  and  _218
REMARK   95  A    between atoms: _218  and  _219
REMARK   96  A    between atoms: _219  and  _220
REMARK   97  A    between atoms: _224  and  _225
REMARK   98  A    between atoms: _230  and  _232
REMARK   99  A    between atoms: _232  and  _233
REMARK  100  A    between atoms: _232  and  _235
REMARK  101  A    between atoms: _235  and  _236
REMARK  102  A    between atoms: _239  and  _241
REMARK  103  A    between atoms: _241  and  _242
REMARK  104  A    between atoms: _241  and  _244
REMARK  105  A    between atoms: _244  and  _245
REMARK  106  A    between atoms: _248  and  _250
REMARK  107  A    between atoms: _250  and  _251
REMARK  108  A    between atoms: _250  and  _253
REMARK  109  A    between atoms: _253  and  _254
REMARK  110  A    between atoms: _256  and  _258
REMARK  111  A    between atoms: _258  and  _259
REMARK  112  A    between atoms: _258  and  _261
REMARK  113  A    between atoms: _261  and  _262
REMARK  114  A    between atoms: _264  and  _266
REMARK  115  A    between atoms: _266  and  _267
REMARK  116  A    between atoms: _269  and  _271
REMARK  117  A    between atoms: _271  and  _272
REMARK  118  A    between atoms: _274  and  _276
REMARK  119  A    between atoms: _276  and  _277
REMARK  120  A    between atoms: _276  and  _279
REMARK  121  A    between atoms: _279  and  _280
REMARK  122  A    between atoms: _283  and  _285
REMARK  123  A    between atoms: _285  and  _286
REMARK  124  A    between atoms: _285  and  _288
REMARK  125  A    between atoms: _288  and  _289
REMARK  126  A    between atoms: _289  and  _290
REMARK  127  A    between atoms: _293  and  _295
REMARK  128  A    between atoms: _295  and  _296
REMARK  129  A    between atoms: _299  and  _301
REMARK  130  A    between atoms: _301  and  _302
REMARK  131  A    between atoms: _301  and  _304
REMARK  132  A    between atoms: _304  and  _305
REMARK  133  A    between atoms: _305  and  _306
REMARK  134  A    between atoms: _311  and  _313
REMARK  135  A    between atoms: _313  and  _314
REMARK  136  A    between atoms: _313  and  _316
REMARK  137  A    between atoms: _316  and  _317
REMARK  138  A    between atoms: _320  and  _322
REMARK  139  A    between atoms: _322  and  _323
REMARK  140  A    between atoms: _322  and  _325
REMARK  141  A    between atoms: _325  and  _326
REMARK  142  A    between atoms: _329  and  _331
REMARK  143  A    between atoms: _331  and  _332
REMARK  144  A    between atoms: _331  and  _334
REMARK  145  A    between atoms: _334  and  _335
REMARK  146  A    between atoms: _338  and  _340
REMARK  147  A    between atoms: _340  and  _341
REMARK  148  A    between atoms: _340  and  _343
REMARK  149  A    between atoms: _343  and  _344
REMARK  150  A    between atoms: _346  and  _348
REMARK  151  A    between atoms: _348  and  _349
REMARK  152  A    between atoms: _348  and  _351
REMARK  153  A    between atoms: _351  and  _352
REMARK  154  A    between atoms: _352  and  _353
REMARK  155  A    between atoms: _353  and  _354
REMARK  156  A    between atoms: _354  and  _355
REMARK  157  A    between atoms: _360  and  _361
REMARK  158  A    between atoms: _366  and  _368
REMARK  159  A    between atoms: _368  and  _369
REMARK  160  A    between atoms: _368  and  _371
REMARK  161  A    between atoms: _371  and  _372
REMARK  162  A    between atoms: _375  and  _377
REMARK  163  A    between atoms: _377  and  _378
REMARK  164  A    between atoms: _381  and  _383
REMARK  165  A    between atoms: _383  and  _384
REMARK  166  A    between atoms: _383  and  _386
REMARK  167  A    between atoms: _386  and  _387
REMARK  168  A    between atoms: _392  and  _394
REMARK  169  A    between atoms: _394  and  _395
REMARK  170  A    between atoms: _394  and  _397
REMARK  171  A    between atoms: _400  and  _402
REMARK  172  A    between atoms: _402  and  _403
REMARK  173  A    between atoms: _402  and  _405
REMARK  174  A    between atoms: _405  and  _406
REMARK  175  A    between atoms: _406  and  _407
REMARK  176  A    between atoms: _407  and  _408
REMARK  177  A    between atoms: _417  and  _419
REMARK  178  A    between atoms: _419  and  _420
REMARK  179  A    between atoms: _419  and  _422
REMARK  180  A    between atoms: _422  and  _423
REMARK  181  A    between atoms: _428  and  _430
REMARK  182  A    between atoms: _430  and  _431
REMARK  183  A    between atoms: _430  and  _433
REMARK  184  A    between atoms: _433  and  _434
REMARK  185  A    between atoms: _440  and  _442
REMARK  186  A    between atoms: _442  and  _443
REMARK  187  A    between atoms: _442  and  _445
REMARK  188  A    between atoms: _445  and  _446
REMARK  189  A    between atoms: _448  and  _450
REMARK  190  A    between atoms: _450  and  _451
REMARK  191  A    between atoms: _450  and  _453
REMARK  192  A    between atoms: _453  and  _454
REMARK  193  A    between atoms: _454  and  _455
REMARK  194  A    between atoms: _458  and  _460
REMARK  195  A    between atoms: _460  and  _461
REMARK  196  A    between atoms: _460  and  _463
REMARK  197  A    between atoms: _463  and  _464
REMARK  198  A    between atoms: _466  and  _468
REMARK  199  A    between atoms: _468  and  _469
REMARK  200  A    between atoms: _468  and  _471
REMARK  201  A    between atoms: _471  and  _472
REMARK  202  A    between atoms: _472  and  _473
REMARK  203  A    between atoms: _476  and  _478
REMARK  204  A    between atoms: _478  and  _479
REMARK  205  A    between atoms: _478  and  _481
REMARK  206  A    between atoms: _481  and  _482
REMARK  207  A    between atoms: _485  and  _487
REMARK  208  A    between atoms: _487  and  _488
REMARK  209  A    between atoms: _487  and  _490
REMARK  210  A    between atoms: _490  and  _491
REMARK  211  A    between atoms: _497  and  _499
REMARK  212  A    between atoms: _499  and  _500
REMARK  213  A    between atoms: _499  and  _502
REMARK  214  A    between atoms: _502  and  _503
REMARK  215  A    between atoms: _508  and  _509
REMARK  216  A    between atoms: _511  and  _513
REMARK  217  A    between atoms: _513  and  _514
REMARK  218  A    between atoms: _513  and  _516
REMARK  219  A    between atoms: _516  and  _517
REMARK  220  A    between atoms: _520  and  _522
REMARK  221  A    between atoms: _522  and  _523
REMARK  222  A    between atoms: _522  and  _525
REMARK  223  A    between atoms: _525  and  _526
REMARK  224  A    between atoms: _529  and  _531
REMARK  225  A    between atoms: _531  and  _532
REMARK  226  A    between atoms: _531  and  _534
REMARK  227  A    between atoms: _534  and  _535
REMARK  228  A    between atoms: _540  and  _542
REMARK  229  A    between atoms: _542  and  _543
REMARK  230  A    between atoms: _542  and  _545
REMARK                            x       y       z     vdW  Elec       q    Type
REMARK                         _______ _______ _______ _____ _____    ______ ____
ROOT
ATOM      1  O   HOH     1      23.011  50.528  18.157  0.00  0.00    +0.000 OA
ENDROOT
TORSDOF 0
REMARK  Name = ../refined-set-2016/1m0o/1m0o_pocket.pdb
REMARK  230 active torsions:
REMARK  status: ('A' for Active; 'I' for Inactive)
REMARK    1  A    between atoms: _1  and  _3
REMARK    2  A    between atoms: _3  and  _4
REMARK    3  A    between atoms: _3  and  _6
REMARK    4  A    between atoms: _6  and  _7
REMARK    5  A    between atoms: _10  and  _12
REMARK    6  A    between atoms: _12  and  _13
REMARK    7  A    between atoms: _15  and  _17
REMARK    8  A    between atoms: _17  and  _18
REMARK    9  A    between atoms: _17  and  _20
REMARK   10  A    between atoms: _20  and  _21
REMARK   11  A    between atoms: _21  and  _22
REMARK   12  A    between atoms: _27  and  _29
REMARK   13  A    between atoms: _29  and  _30
REMARK   14  A    between atoms: _29  and  _32
REMARK   15  A    between atoms: _32  and  _33
REMARK   16  A    between atoms: _33  and  _34
REMARK   17  A    between atoms: _36  and  _38
REMARK   18  A    between atoms: _38  and  _39
REMARK   19  A    between atoms: _38  and  _41
REMARK   20  A    between atoms: _41  and  _42
REMARK   21  A    between atoms: _44  and  _46
REMARK   22  A    between atoms: _46  and  _47
REMARK   23  A    between atoms: _46  and  _49
REMARK   24  A    between atoms: _49  and  _50
REMARK   25  A    between atoms: _52  and  _54
REMARK   26  A    between atoms: _54  and  _55
REMARK   27  A    between atoms: _54  and  _57
REMARK   28  A    between atoms: _57  and  _58
REMARK   29  A    between atoms: _61  and  _63
REMARK   30  A    between atoms: _63  and  _64
REMARK   31  A    between atoms: _66  and  _68
REMARK   32  A    between atoms: _68  and  _69
REMARK   33  A    between atoms: _72  and  _74
REMARK   34  A    between atoms: _74  and  _75
REMARK   35  A    between atoms: _74  and  _77
REMARK   36  A    between atoms: _77  and  _78
REMARK   37  A    between atoms: _78  and  _79
REMARK   38  A    between atoms: _82  and  _84
REMARK   39  A    between atoms: _84  and  _85
REMARK   40  A    between atoms: _84  and  _87
REMARK   41  A    between atoms: _87  and  _88
REMARK   42  A    between atoms: _90  and  _92
REMARK   43  A    between atoms: _92  and  _93
REMARK   44  A    between atoms: _92  and  _95
REMARK   45  A    between atoms: _95  and  _96
REMARK   46  A    between atoms: _101  and  _103
REMARK   47  A    between atoms: _103  and  _104
REMARK   48  A    between atoms: _103  and  _106
REMARK   49  A    between atoms: _106  and  _107
REMARK   50  A    between atoms: _107  and  _108
REMARK   51  A    between atoms: _111  and  _113
REMARK   52  A    between atoms: _113  and  _114
REMARK   53  A    between atoms: _113  and  _116
REMARK   54  A    between atoms: _116  and  _117
REMARK   55  A    between atoms: _119  and  _121
REMARK   56  A    between atoms: _121  and  _122
REMARK   57  A    between atoms: _121  and  _124
REMARK   58  A    between atoms: _124  and  _125
REMARK   59  A    between atoms: _135  and  _137
REMARK   60  A    between atoms: _137  and  _138
REMARK   61  A    between atoms: _137  and  _140
REMARK   62  A    between atoms: _140  and  _141
REMARK   63  A    between atoms: _146  and  _148
REMARK   64  A    between atoms: _148  and  _149
REMARK   65  A    between atoms: _151  and  _153
REMARK   66  A    between atoms: _153  and  _154
REMARK   67  A    between atoms: _153  and  _156
REMARK   68  A    between atoms: _156  and  _157
REMARK   69  A    between atoms: _157  and  _158
REMARK   70  A    between atoms: _160  and  _162
REMARK   71  A    between atoms: _162  and  _163
REMARK   72  A    between atoms: _162  and  _165
REMARK   73  A    between atoms: _165  and  _166
REMARK   74  A    between atoms: _169  and  _171
REMARK   75  A    between atoms: _171  and  _172
REMARK   76  A    between atoms: _175  and  _177
REMARK   77  A    between atoms: _177  and  _178
REMARK   78  A    between atoms: _177  and  _180
REMARK   79  A    between atoms: _180  and  _181
REMARK   80  A    between atoms: _184  and  _186
REMARK   81  A    between atoms: _186  and  _187
REMARK   82  A    between atoms: _186  and  _189
REMARK   83  A    between atoms: _189  and  _190
REMARK   84  A    between atoms: _192  and  _194
REMARK   85  A    between atoms: _194  and  _195
REMARK   86  A    between atoms: _198  and  _200
REMARK   87  A    between atoms: _200  and  _201
REMARK   88  A    between atoms: _200  and  _203
REMARK   89  A    between atoms: _203  and  _205
REMARK   90  A    between atoms: _207  and  _209
REMARK   91  A    between atoms: _209  and  _210
REMARK   92  A    between atoms: _213  and  _215
REMARK   93  A    between atoms: _215  and  _216
REMARK   94  A    between atoms: _215  and  _218
REMARK   95  A    between atoms: _218  and  _219
REMARK   96  A    between atoms: _219  and  _220
REMARK   97  A    between atoms: _224  and  _225
REMARK   98  A    between atoms: _230  and  _232
REMARK   99  A    between atoms: _232  and  _233
REMARK  100  A    between atoms: _232  and  _235
REMARK  101  A    between atoms: _235  and  _236
REMARK  102  A    between atoms: _239  and  _241
REMARK  103  A    between atoms: _241  and  _242
REMARK  104  A    between atoms: _241  and  _244
REMARK  105  A    between atoms: _244  and  _245
REMARK  106  A    between atoms: _248  and  _250
REMARK  107  A    between atoms: _250  and  _251
REMARK  108  A    between atoms: _250  and  _253
REMARK  109  A    between atoms: _253  and  _254
REMARK  110  A    between atoms: _256  and  _258
REMARK  111  A    between atoms: _258  and  _259
REMARK  112  A    between atoms: _258  and  _261
REMARK  113  A    between atoms: _261  and  _262
REMARK  114  A    between atoms: _264  and  _266
REMARK  115  A    between atoms: _266  and  _267
REMARK  116  A    between atoms: _269  and  _271
REMARK  117  A    between atoms: _271  and  _272
REMARK  118  A    between atoms: _274  and  _276
REMARK  119  A    between atoms: _276  and  _277
REMARK  120  A    between atoms: _276  and  _279
REMARK  121  A    between atoms: _279  and  _280
REMARK  122  A    between atoms: _283  and  _285
REMARK  123  A    between atoms: _285  and  _286
REMARK  124  A    between atoms: _285  and  _288
REMARK  125  A    between atoms: _288  and  _289
REMARK  126  A    between atoms: _289  and  _290
REMARK  127  A    between atoms: _293  and  _295
REMARK  128  A    between atoms: _295  and  _296
REMARK  129  A    between atoms: _299  and  _301
REMARK  130  A    between atoms: _301  and  _302
REMARK  131  A    between atoms: _301  and  _304
REMARK  132  A    between atoms: _304  and  _305
REMARK  133  A    between atoms: _305  and  _306
REMARK  134  A    between atoms: _311  and  _313
REMARK  135  A    between atoms: _313  and  _314
REMARK  136  A    between atoms: _313  and  _316
REMARK  137  A    between atoms: _316  and  _317
REMARK  138  A    between atoms: _320  and  _322
REMARK  139  A    between atoms: _322  and  _323
REMARK  140  A    between atoms: _322  and  _325
REMARK  141  A    between atoms: _325  and  _326
REMARK  142  A    between atoms: _329  and  _331
REMARK  143  A    between atoms: _331  and  _332
REMARK  144  A    between atoms: _331  and  _334
REMARK  145  A    between atoms: _334  and  _335
REMARK  146  A    between atoms: _338  and  _340
REMARK  147  A    between atoms: _340  and  _341
REMARK  148  A    between atoms: _340  and  _343
REMARK  149  A    between atoms: _343  and  _344
REMARK  150  A    between atoms: _346  and  _348
REMARK  151  A    between atoms: _348  and  _349
REMARK  152  A    between atoms: _348  and  _351
REMARK  153  A    between atoms: _351  and  _352
REMARK  154  A    between atoms: _352  and  _353
REMARK  155  A    between atoms: _353  and  _354
REMARK  156  A    between atoms: _354  and  _355
REMARK  157  A    between atoms: _360  and  _361
REMARK  158  A    between atoms: _366  and  _368
REMARK  159  A    between atoms: _368  and  _369
REMARK  160  A    between atoms: _368  and  _371
REMARK  161  A    between atoms: _371  and  _372
REMARK  162  A    between atoms: _375  and  _377
REMARK  163  A    between atoms: _377  and  _378
REMARK  164  A    between atoms: _381  and  _383
REMARK  165  A    between atoms: _383  and  _384
REMARK  166  A    between atoms: _383  and  _386
REMARK  167  A    between atoms: _386  and  _387
REMARK  168  A    between atoms: _392  and  _394
REMARK  169  A    between atoms: _394  and  _395
REMARK  170  A    between atoms: _394  and  _397
REMARK  171  A    between atoms: _400  and  _402
REMARK  172  A    between atoms: _402  and  _403
REMARK  173  A    between atoms: _402  and  _405
REMARK  174  A    between atoms: _405  and  _406
REMARK  175  A    between atoms: _406  and  _407
REMARK  176  A    between atoms: _407  and  _408
REMARK  177  A    between atoms: _417  and  _419
REMARK  178  A    between atoms: _419  and  _420
REMARK  179  A    between atoms: _419  and  _422
REMARK  180  A    between atoms: _422  and  _423
REMARK  181  A    between atoms: _428  and  _430
REMARK  182  A    between atoms: _430  and  _431
REMARK  183  A    between atoms: _430  and  _433
REMARK  184  A    between atoms: _433  and  _434
REMARK  185  A    between atoms: _440  and  _442
REMARK  186  A    between atoms: _442  and  _443
REMARK  187  A    between atoms: _442  and  _445
REMARK  188  A    between atoms: _445  and  _446
REMARK  189  A    between atoms: _448  and  _450
REMARK  190  A    between atoms: _450  and  _451
REMARK  191  A    between atoms: _450  and  _453
REMARK  192  A    between atoms: _453  and  _454
REMARK  193  A    between atoms: _454  and  _455
REMARK  194  A    between atoms: _458  and  _460
REMARK  195  A    between atoms: _460  and  _461
REMARK  196  A    between atoms: _460  and  _463
REMARK  197  A    between atoms: _463  and  _464
REMARK  198  A    between atoms: _466  and  _468
REMARK  199  A    between atoms: _468  and  _469
REMARK  200  A    between atoms: _468  and  _471
REMARK  201  A    between atoms: _471  and  _472
REMARK  202  A    between atoms: _472  and  _473
REMARK  203  A    between atoms: _476  and  _478
REMARK  204  A    between atoms: _478  and  _479
REMARK  205  A    between atoms: _478  and  _481
REMARK  206  A    between atoms: _481  and  _482
REMARK  207  A    between atoms: _485  and  _487
REMARK  208  A    between atoms: _487  and  _488
REMARK  209  A    between atoms: _487  and  _490
REMARK  210  A    between atoms: _490  and  _491
REMARK  211  A    between atoms: _497  and  _499
REMARK  212  A    between atoms: _499  and  _500
REMARK  213  A    between atoms: _499  and  _502
REMARK  214  A    between atoms: _502  and  _503
REMARK  215  A    between atoms: _508  and  _509
REMARK  216  A    between atoms: _511  and  _513
REMARK  217  A    between atoms: _513  and  _514
REMARK  218  A    between atoms: _513  and  _516
REMARK  219  A    between atoms: _516  and  _517
REMARK  220  A    between atoms: _520  and  _522
REMARK  221  A    between atoms: _522  and  _523
REMARK  222  A    between atoms: _522  and  _525
REMARK  223  A    between atoms: _525  and  _526
REMARK  224  A    between atoms: _529  and  _531
REMARK  225  A    between atoms: _531  and  _532
REMARK  226  A    between atoms: _531  and  _534
REMARK  227  A    between atoms: _534  and  _535
REMARK  228  A    between atoms: _540  and  _542
REMARK  229  A    between atoms: _542  and  _543
REMARK  230  A    between atoms: _542  and  _545
REMARK                            x       y       z     vdW  Elec       q    Type
REMARK                         _______ _______ _______ _____ _____    ______ ____
ROOT
ATOM      1  O   HOH     1      18.150  46.140  15.004  0.00  0.00    +0.000 OA
ENDROOT
TORSDOF 0
REMARK  Name = ../refined-set-2016/1m0o/1m0o_pocket.pdb
REMARK  230 active torsions:
REMARK  status: ('A' for Active; 'I' for Inactive)
REMARK    1  A    between atoms: _1  and  _3
REMARK    2  A    between atoms: _3  and  _4
REMARK    3  A    between atoms: _3  and  _6
REMARK    4  A    between atoms: _6  and  _7
REMARK    5  A    between atoms: _10  and  _12
REMARK    6  A    between atoms: _12  and  _13
REMARK    7  A    between atoms: _15  and  _17
REMARK    8  A    between atoms: _17  and  _18
REMARK    9  A    between atoms: _17  and  _20
REMARK   10  A    between atoms: _20  and  _21
REMARK   11  A    between atoms: _21  and  _22
REMARK   12  A    between atoms: _27  and  _29
REMARK   13  A    between atoms: _29  and  _30
REMARK   14  A    between atoms: _29  and  _32
REMARK   15  A    between atoms: _32  and  _33
REMARK   16  A    between atoms: _33  and  _34
REMARK   17  A    between atoms: _36  and  _38
REMARK   18  A    between atoms: _38  and  _39
REMARK   19  A    between atoms: _38  and  _41
REMARK   20  A    between atoms: _41  and  _42
REMARK   21  A    between atoms: _44  and  _46
REMARK   22  A    between atoms: _46  and  _47
REMARK   23  A    between atoms: _46  and  _49
REMARK   24  A    between atoms: _49  and  _50
REMARK   25  A    between atoms: _52  and  _54
REMARK   26  A    between atoms: _54  and  _55
REMARK   27  A    between atoms: _54  and  _57
REMARK   28  A    between atoms: _57  and  _58
REMARK   29  A    between atoms: _61  and  _63
REMARK   30  A    between atoms: _63  and  _64
REMARK   31  A    between atoms: _66  and  _68
REMARK   32  A    between atoms: _68  and  _69
REMARK   33  A    between atoms: _72  and  _74
REMARK   34  A    between atoms: _74  and  _75
REMARK   35  A    between atoms: _74  and  _77
REMARK   36  A    between atoms: _77  and  _78
REMARK   37  A    between atoms: _78  and  _79
REMARK   38  A    between atoms: _82  and  _84
REMARK   39  A    between atoms: _84  and  _85
REMARK   40  A    between atoms: _84  and  _87
REMARK   41  A    between atoms: _87  and  _88
REMARK   42  A    between atoms: _90  and  _92
REMARK   43  A    between atoms: _92  and  _93
REMARK   44  A    between atoms: _92  and  _95
REMARK   45  A    between atoms: _95  and  _96
REMARK   46  A    between atoms: _101  and  _103
REMARK   47  A    between atoms: _103  and  _104
REMARK   48  A    between atoms: _103  and  _106
REMARK   49  A    between atoms: _106  and  _107
REMARK   50  A    between atoms: _107  and  _108
REMARK   51  A    between atoms: _111  and  _113
REMARK   52  A    between atoms: _113  and  _114
REMARK   53  A    between atoms: _113  and  _116
REMARK   54  A    between atoms: _116  and  _117
REMARK   55  A    between atoms: _119  and  _121
REMARK   56  A    between atoms: _121  and  _122
REMARK   57  A    between atoms: _121  and  _124
REMARK   58  A    between atoms: _124  and  _125
REMARK   59  A    between atoms: _135  and  _137
REMARK   60  A    between atoms: _137  and  _138
REMARK   61  A    between atoms: _137  and  _140
REMARK   62  A    between atoms: _140  and  _141
REMARK   63  A    between atoms: _146  and  _148
REMARK   64  A    between atoms: _148  and  _149
REMARK   65  A    between atoms: _151  and  _153
REMARK   66  A    between atoms: _153  and  _154
REMARK   67  A    between atoms: _153  and  _156
REMARK   68  A    between atoms: _156  and  _157
REMARK   69  A    between atoms: _157  and  _158
REMARK   70  A    between atoms: _160  and  _162
REMARK   71  A    between atoms: _162  and  _163
REMARK   72  A    between atoms: _162  and  _165
REMARK   73  A    between atoms: _165  and  _166
REMARK   74  A    between atoms: _169  and  _171
REMARK   75  A    between atoms: _171  and  _172
REMARK   76  A    between atoms: _175  and  _177
REMARK   77  A    between atoms: _177  and  _178
REMARK   78  A    between atoms: _177  and  _180
REMARK   79  A    between atoms: _180  and  _181
REMARK   80  A    between atoms: _184  and  _186
REMARK   81  A    between atoms: _186  and  _187
REMARK   82  A    between atoms: _186  and  _189
REMARK   83  A    between atoms: _189  and  _190
REMARK   84  A    between atoms: _192  and  _194
REMARK   85  A    between atoms: _194  and  _195
REMARK   86  A    between atoms: _198  and  _200
REMARK   87  A    between atoms: _200  and  _201
REMARK   88  A    between atoms: _200  and  _203
REMARK   89  A    between atoms: _203  and  _205
REMARK   90  A    between atoms: _207  and  _209
REMARK   91  A    between atoms: _209  and  _210
REMARK   92  A    between atoms: _213  and  _215
REMARK   93  A    between atoms: _215  and  _216
REMARK   94  A    between atoms: _215  and  _218
REMARK   95  A    between atoms: _218  and  _219
REMARK   96  A    between atoms: _219  and  _220
REMARK   97  A    between atoms: _224  and  _225
REMARK   98  A    between atoms: _230  and  _232
REMARK   99  A    between atoms: _232  and  _233
REMARK  100  A    between atoms: _232  and  _235
REMARK  101  A    between atoms: _235  and  _236
REMARK  102  A    between atoms: _239  and  _241
REMARK  103  A    between atoms: _241  and  _242
REMARK  104  A    between atoms: _241  and  _244
REMARK  105  A    between atoms: _244  and  _245
REMARK  106  A    between atoms: _248  and  _250
REMARK  107  A    between atoms: _250  and  _251
REMARK  108  A    between atoms: _250  and  _253
REMARK  109  A    between atoms: _253  and  _254
REMARK  110  A    between atoms: _256  and  _258
REMARK  111  A    between atoms: _258  and  _259
REMARK  112  A    between atoms: _258  and  _261
REMARK  113  A    between atoms: _261  and  _262
REMARK  114  A    between atoms: _264  and  _266
REMARK  115  A    between atoms: _266  and  _267
REMARK  116  A    between atoms: _269  and  _271
REMARK  117  A    between atoms: _271  and  _272
REMARK  118  A    between atoms: _274  and  _276
REMARK  119  A    between atoms: _276  and  _277
REMARK  120  A    between atoms: _276  and  _279
REMARK  121  A    between atoms: _279  and  _280
REMARK  122  A    between atoms: _283  and  _285
REMARK  123  A    between atoms: _285  and  _286
REMARK  124  A    between atoms: _285  and  _288
REMARK  125  A    between atoms: _288  and  _289
REMARK  126  A    between atoms: _289  and  _290
REMARK  127  A    between atoms: _293  and  _295
REMARK  128  A    between atoms: _295  and  _296
REMARK  129  A    between atoms: _299  and  _301
REMARK  130  A    between atoms: _301  and  _302
REMARK  131  A    between atoms: _301  and  _304
REMARK  132  A    between atoms: _304  and  _305
REMARK  133  A    between atoms: _305  and  _306
REMARK  134  A    between atoms: _311  and  _313
REMARK  135  A    between atoms: _313  and  _314
REMARK  136  A    between atoms: _313  and  _316
REMARK  137  A    between atoms: _316  and  _317
REMARK  138  A    between atoms: _320  and  _322
REMARK  139  A    between atoms: _322  and  _323
REMARK  140  A    between atoms: _322  and  _325
REMARK  141  A    between atoms: _325  and  _326
REMARK  142  A    between atoms: _329  and  _331
REMARK  143  A    between atoms: _331  and  _332
REMARK  144  A    between atoms: _331  and  _334
REMARK  145  A    between atoms: _334  and  _335
REMARK  146  A    between atoms: _338  and  _340
REMARK  147  A    between atoms: _340  and  _341
REMARK  148  A    between atoms: _340  and  _343
REMARK  149  A    between atoms: _343  and  _344
REMARK  150  A    between atoms: _346  and  _348
REMARK  151  A    between atoms: _348  and  _349
REMARK  152  A    between atoms: _348  and  _351
REMARK  153  A    between atoms: _351  and  _352
REMARK  154  A    between atoms: _352  and  _353
REMARK  155  A    between atoms: _353  and  _354
REMARK  156  A    between atoms: _354  and  _355
REMARK  157  A    between atoms: _360  and  _361
REMARK  158  A    between atoms: _366  and  _368
REMARK  159  A    between atoms: _368  and  _369
REMARK  160  A    between atoms: _368  and  _371
REMARK  161  A    between atoms: _371  and  _372
REMARK  162  A    between atoms: _375  and  _377
REMARK  163  A    between atoms: _377  and  _378
REMARK  164  A    between atoms: _381  and  _383
REMARK  165  A    between atoms: _383  and  _384
REMARK  166  A    between atoms: _383  and  _386
REMARK  167  A    between atoms: _386  and  _387
REMARK  168  A    between atoms: _392  and  _394
REMARK  169  A    between atoms: _394  and  _395
REMARK  170  A    between atoms: _394  and  _397
REMARK  171  A    between atoms: _400  and  _402
REMARK  172  A    between atoms: _402  and  _403
REMARK  173  A    between atoms: _402  and  _405
REMARK  174  A    between atoms: _405  and  _406
REMARK  175  A    between atoms: _406  and  _407
REMARK  176  A    between atoms: _407  and  _408
REMARK  177  A    between atoms: _417  and  _419
REMARK  178  A    between atoms: _419  and  _420
REMARK  179  A    between atoms: _419  and  _422
REMARK  180  A    between atoms: _422  and  _423
REMARK  181  A    between atoms: _428  and  _430
REMARK  182  A    between atoms: _430  and  _431
REMARK  183  A    between atoms: _430  and  _433
REMARK  184  A    between atoms: _433  and  _434
REMARK  185  A    between atoms: _440  and  _442
REMARK  186  A    between atoms: _442  and  _443
REMARK  187  A    between atoms: _442  and  _445
REMARK  188  A    between atoms: _445  and  _446
REMARK  189  A    between atoms: _448  and  _450
REMARK  190  A    between atoms: _450  and  _451
REMARK  191  A    between atoms: _450  and  _453
REMARK  192  A    between atoms: _453  and  _454
REMARK  193  A    between atoms: _454  and  _455
REMARK  194  A    between atoms: _458  and  _460
REMARK  195  A    between atoms: _460  and  _461
REMARK  196  A    between atoms: _460  and  _463
REMARK  197  A    between atoms: _463  and  _464
REMARK  198  A    between atoms: _466  and  _468
REMARK  199  A    between atoms: _468  and  _469
REMARK  200  A    between atoms: _468  and  _471
REMARK  201  A    between atoms: _471  and  _472
REMARK  202  A    between atoms: _472  and  _473
REMARK  203  A    between atoms: _476  and  _478
REMARK  204  A    between atoms: _478  and  _479
REMARK  205  A    between atoms: _478  and  _481
REMARK  206  A    between atoms: _481  and  _482
REMARK  207  A    between atoms: _485  and  _487
REMARK  208  A    between atoms: _487  and  _488
REMARK  209  A    between atoms: _487  and  _490
REMARK  210  A    between atoms: _490  and  _491
REMARK  211  A    between atoms: _497  and  _499
REMARK  212  A    between atoms: _499  and  _500
REMARK  213  A    between atoms: _499  and  _502
REMARK  214  A    between atoms: _502  and  _503
REMARK  215  A    between atoms: _508  and  _509
REMARK  216  A    between atoms: _511  and  _513
REMARK  217  A    between atoms: _513  and  _514
REMARK  218  A    between atoms: _513  and  _516
REMARK  219  A    between atoms: _516  and  _517
REMARK  220  A    between atoms: _520  and  _522
REMARK  221  A    between atoms: _522  and  _523
REMARK  222  A    between atoms: _522  and  _525
REMARK  223  A    between atoms: _525  and  _526
REMARK  224  A    between atoms: _529  and  _531
REMARK  225  A    between atoms: _531  and  _532
REMARK  226  A    between atoms: _531  and  _534
REMARK  227  A    between atoms: _534  and  _535
REMARK  228  A    between atoms: _540  and  _542
REMARK  229  A    between atoms: _542  and  _543
REMARK  230  A    between atoms: _542  and  _545
REMARK                            x       y       z     vdW  Elec       q    Type
REMARK                         _______ _______ _______ _____ _____    ______ ____
ROOT
ATOM      1  O   HOH     1      13.656  51.378  25.083  0.00  0.00    +0.000 OA
ENDROOT
TORSDOF 0
REMARK  Name = ../refined-set-2016/1m0o/1m0o_pocket.pdb
REMARK  230 active torsions:
REMARK  status: ('A' for Active; 'I' for Inactive)
REMARK    1  A    between atoms: _1  and  _3
REMARK    2  A    between atoms: _3  and  _4
REMARK    3  A    between atoms: _3  and  _6
REMARK    4  A    between atoms: _6  and  _7
REMARK    5  A    between atoms: _10  and  _12
REMARK    6  A    between atoms: _12  and  _13
REMARK    7  A    between atoms: _15  and  _17
REMARK    8  A    between atoms: _17  and  _18
REMARK    9  A    between atoms: _17  and  _20
REMARK   10  A    between atoms: _20  and  _21
REMARK   11  A    between atoms: _21  and  _22
REMARK   12  A    between atoms: _27  and  _29
REMARK   13  A    between atoms: _29  and  _30
REMARK   14  A    between atoms: _29  and  _32
REMARK   15  A    between atoms: _32  and  _33
REMARK   16  A    between atoms: _33  and  _34
REMARK   17  A    between atoms: _36  and  _38
REMARK   18  A    between atoms: _38  and  _39
REMARK   19  A    between atoms: _38  and  _41
REMARK   20  A    between atoms: _41  and  _42
REMARK   21  A    between atoms: _44  and  _46
REMARK   22  A    between atoms: _46  and  _47
REMARK   23  A    between atoms: _46  and  _49
REMARK   24  A    between atoms: _49  and  _50
REMARK   25  A    between atoms: _52  and  _54
REMARK   26  A    between atoms: _54  and  _55
REMARK   27  A    between atoms: _54  and  _57
REMARK   28  A    between atoms: _57  and  _58
REMARK   29  A    between atoms: _61  and  _63
REMARK   30  A    between atoms: _63  and  _64
REMARK   31  A    between atoms: _66  and  _68
REMARK   32  A    between atoms: _68  and  _69
REMARK   33  A    between atoms: _72  and  _74
REMARK   34  A    between atoms: _74  and  _75
REMARK   35  A    between atoms: _74  and  _77
REMARK   36  A    between atoms: _77  and  _78
REMARK   37  A    between atoms: _78  and  _79
REMARK   38  A    between atoms: _82  and  _84
REMARK   39  A    between atoms: _84  and  _85
REMARK   40  A    between atoms: _84  and  _87
REMARK   41  A    between atoms: _87  and  _88
REMARK   42  A    between atoms: _90  and  _92
REMARK   43  A    between atoms: _92  and  _93
REMARK   44  A    between atoms: _92  and  _95
REMARK   45  A    between atoms: _95  and  _96
REMARK   46  A    between atoms: _101  and  _103
REMARK   47  A    between atoms: _103  and  _104
REMARK   48  A    between atoms: _103  and  _106
REMARK   49  A    between atoms: _106  and  _107
REMARK   50  A    between atoms: _107  and  _108
REMARK   51  A    between atoms: _111  and  _113
REMARK   52  A    between atoms: _113  and  _114
REMARK   53  A    between atoms: _113  and  _116
REMARK   54  A    between atoms: _116  and  _117
REMARK   55  A    between atoms: _119  and  _121
REMARK   56  A    between atoms: _121  and  _122
REMARK   57  A    between atoms: _121  and  _124
REMARK   58  A    between atoms: _124  and  _125
REMARK   59  A    between atoms: _135  and  _137
REMARK   60  A    between atoms: _137  and  _138
REMARK   61  A    between atoms: _137  and  _140
REMARK   62  A    between atoms: _140  and  _141
REMARK   63  A    between atoms: _146  and  _148
REMARK   64  A    between atoms: _148  and  _149
REMARK   65  A    between atoms: _151  and  _153
REMARK   66  A    between atoms: _153  and  _154
REMARK   67  A    between atoms: _153  and  _156
REMARK   68  A    between atoms: _156  and  _157
REMARK   69  A    between atoms: _157  and  _158
REMARK   70  A    between atoms: _160  and  _162
REMARK   71  A    between atoms: _162  and  _163
REMARK   72  A    between atoms: _162  and  _165
REMARK   73  A    between atoms: _165  and  _166
REMARK   74  A    between atoms: _169  and  _171
REMARK   75  A    between atoms: _171  and  _172
REMARK   76  A    between atoms: _175  and  _177
REMARK   77  A    between atoms: _177  and  _178
REMARK   78  A    between atoms: _177  and  _180
REMARK   79  A    between atoms: _180  and  _181
REMARK   80  A    between atoms: _184  and  _186
REMARK   81  A    between atoms: _186  and  _187
REMARK   82  A    between atoms: _186  and  _189
REMARK   83  A    between atoms: _189  and  _190
REMARK   84  A    between atoms: _192  and  _194
REMARK   85  A    between atoms: _194  and  _195
REMARK   86  A    between atoms: _198  and  _200
REMARK   87  A    between atoms: _200  and  _201
REMARK   88  A    between atoms: _200  and  _203
REMARK   89  A    between atoms: _203  and  _205
REMARK   90  A    between atoms: _207  and  _209
REMARK   91  A    between atoms: _209  and  _210
REMARK   92  A    between atoms: _213  and  _215
REMARK   93  A    between atoms: _215  and  _216
REMARK   94  A    between atoms: _215  and  _218
REMARK   95  A    between atoms: _218  and  _219
REMARK   96  A    between atoms: _219  and  _220
REMARK   97  A    between atoms: _224  and  _225
REMARK   98  A    between atoms: _230  and  _232
REMARK   99  A    between atoms: _232  and  _233
REMARK  100  A    between atoms: _232  and  _235
REMARK  101  A    between atoms: _235  and  _236
REMARK  102  A    between atoms: _239  and  _241
REMARK  103  A    between atoms: _241  and  _242
REMARK  104  A    between atoms: _241  and  _244
REMARK  105  A    between atoms: _244  and  _245
REMARK  106  A    between atoms: _248  and  _250
REMARK  107  A    between atoms: _250  and  _251
REMARK  108  A    between atoms: _250  and  _253
REMARK  109  A    between atoms: _253  and  _254
REMARK  110  A    between atoms: _256  and  _258
REMARK  111  A    between atoms: _258  and  _259
REMARK  112  A    between atoms: _258  and  _261
REMARK  113  A    between atoms: _261  and  _262
REMARK  114  A    between atoms: _264  and  _266
REMARK  115  A    between atoms: _266  and  _267
REMARK  116  A    between atoms: _269  and  _271
REMARK  117  A    between atoms: _271  and  _272
REMARK  118  A    between atoms: _274  and  _276
REMARK  119  A    between atoms: _276  and  _277
REMARK  120  A    between atoms: _276  and  _279
REMARK  121  A    between atoms: _279  and  _280
REMARK  122  A    between atoms: _283  and  _285
REMARK  123  A    between atoms: _285  and  _286
REMARK  124  A    between atoms: _285  and  _288
REMARK  125  A    between atoms: _288  and  _289
REMARK  126  A    between atoms: _289  and  _290
REMARK  127  A    between atoms: _293  and  _295
REMARK  128  A    between atoms: _295  and  _296
REMARK  129  A    between atoms: _299  and  _301
REMARK  130  A    between atoms: _301  and  _302
REMARK  131  A    between atoms: _301  and  _304
REMARK  132  A    between atoms: _304  and  _305
REMARK  133  A    between atoms: _305  and  _306
REMARK  134  A    between atoms: _311  and  _313
REMARK  135  A    between atoms: _313  and  _314
REMARK  136  A    between atoms: _313  and  _316
REMARK  137  A    between atoms: _316  and  _317
REMARK  138  A    between atoms: _320  and  _322
REMARK  139  A    between atoms: _322  and  _323
REMARK  140  A    between atoms: _322  and  _325
REMARK  141  A    between atoms: _325  and  _326
REMARK  142  A    between atoms: _329  and  _331
REMARK  143  A    between atoms: _331  and  _332
REMARK  144  A    between atoms: _331  and  _334
REMARK  145  A    between atoms: _334  and  _335
REMARK  146  A    between atoms: _338  and  _340
REMARK  147  A    between atoms: _340  and  _341
REMARK  148  A    between atoms: _340  and  _343
REMARK  149  A    between atoms: _343  and  _344
REMARK  150  A    between atoms: _346  and  _348
REMARK  151  A    between atoms: _348  and  _349
REMARK  152  A    between atoms: _348  and  _351
REMARK  153  A    between atoms: _351  and  _352
REMARK  154  A    between atoms: _352  and  _353
REMARK  155  A    between atoms: _353  and  _354
REMARK  156  A    between atoms: _354  and  _355
REMARK  157  A    between atoms: _360  and  _361
REMARK  158  A    between atoms: _366  and  _368
REMARK  159  A    between atoms: _368  and  _369
REMARK  160  A    between atoms: _368  and  _371
REMARK  161  A    between atoms: _371  and  _372
REMARK  162  A    between atoms: _375  and  _377
REMARK  163  A    between atoms: _377  and  _378
REMARK  164  A    between atoms: _381  and  _383
REMARK  165  A    between atoms: _383  and  _384
REMARK  166  A    between atoms: _383  and  _386
REMARK  167  A    between atoms: _386  and  _387
REMARK  168  A    between atoms: _392  and  _394
REMARK  169  A    between atoms: _394  and  _395
REMARK  170  A    between atoms: _394  and  _397
REMARK  171  A    between atoms: _400  and  _402
REMARK  172  A    between atoms: _402  and  _403
REMARK  173  A    between atoms: _402  and  _405
REMARK  174  A    between atoms: _405  and  _406
REMARK  175  A    between atoms: _406  and  _407
REMARK  176  A    between atoms: _407  and  _408
REMARK  177  A    between atoms: _417  and  _419
REMARK  178  A    between atoms: _419  and  _420
REMARK  179  A    between atoms: _419  and  _422
REMARK  180  A    between atoms: _422  and  _423
REMARK  181  A    between atoms: _428  and  _430
REMARK  182  A    between atoms: _430  and  _431
REMARK  183  A    between atoms: _430  and  _433
REMARK  184  A    between atoms: _433  and  _434
REMARK  185  A    between atoms: _440  and  _442
REMARK  186  A    between atoms: _442  and  _443
REMARK  187  A    between atoms: _442  and  _445
REMARK  188  A    between atoms: _445  and  _446
REMARK  189  A    between atoms: _448  and  _450
REMARK  190  A    between atoms: _450  and  _451
REMARK  191  A    between atoms: _450  and  _453
REMARK  192  A    between atoms: _453  and  _454
REMARK  193  A    between atoms: _454  and  _455
REMARK  194  A    between atoms: _458  and  _460
REMARK  195  A    between atoms: _460  and  _461
REMARK  196  A    between atoms: _460  and  _463
REMARK  197  A    between atoms: _463  and  _464
REMARK  198  A    between atoms: _466  and  _468
REMARK  199  A    between atoms: _468  and  _469
REMARK  200  A    between atoms: _468  and  _471
REMARK  201  A    between atoms: _471  and  _472
REMARK  202  A    between atoms: _472  and  _473
REMARK  203  A    between atoms: _476  and  _478
REMARK  204  A    between atoms: _478  and  _479
REMARK  205  A    between atoms: _478  and  _481
REMARK  206  A    between atoms: _481  and  _482
REMARK  207  A    between atoms: _485  and  _487
REMARK  208  A    between atoms: _487  and  _488
REMARK  209  A    between atoms: _487  and  _490
REMARK  210  A    between atoms: _490  and  _491
REMARK  211  A    between atoms: _497  and  _499
REMARK  212  A    between atoms: _499  and  _500
REMARK  213  A    between atoms: _499  and  _502
REMARK  214  A    between atoms: _502  and  _503
REMARK  215  A    between atoms: _508  and  _509
REMARK  216  A    between atoms: _511  and  _513
REMARK  217  A    between atoms: _513  and  _514
REMARK  218  A    between atoms: _513  and  _516
REMARK  219  A    between atoms: _516  and  _517
REMARK  220  A    between atoms: _520  and  _522
REMARK  221  A    between atoms: _522  and  _523
REMARK  222  A    between atoms: _522  and  _525
REMARK  223  A    between atoms: _525  and  _526
REMARK  224  A    between atoms: _529  and  _531
REMARK  225  A    between atoms: _531  and  _532
REMARK  226  A    between atoms: _531  and  _534
REMARK  227  A    between atoms: _534  and  _535
REMARK  228  A    between atoms: _540  and  _542
REMARK  229  A    between atoms: _542  and  _543
REMARK  230  A    between atoms: _542  and  _545
REMARK                            x       y       z     vdW  Elec       q    Type
REMARK                         _______ _______ _______ _____ _____    ______ ____
ROOT
ATOM      1  O   HOH     1      15.512  53.647  24.488  0.00  0.00    +0.000 OA
ENDROOT
TORSDOF 0
REMARK  Name = ../refined-set-2016/1m0o/1m0o_pocket.pdb
REMARK  230 active torsions:
REMARK  status: ('A' for Active; 'I' for Inactive)
REMARK    1  A    between atoms: _1  and  _3
REMARK    2  A    between atoms: _3  and  _4
REMARK    3  A    between atoms: _3  and  _6
REMARK    4  A    between atoms: _6  and  _7
REMARK    5  A    between atoms: _10  and  _12
REMARK    6  A    between atoms: _12  and  _13
REMARK    7  A    between atoms: _15  and  _17
REMARK    8  A    between atoms: _17  and  _18
REMARK    9  A    between atoms: _17  and  _20
REMARK   10  A    between atoms: _20  and  _21
REMARK   11  A    between atoms: _21  and  _22
REMARK   12  A    between atoms: _27  and  _29
REMARK   13  A    between atoms: _29  and  _30
REMARK   14  A    between atoms: _29  and  _32
REMARK   15  A    between atoms: _32  and  _33
REMARK   16  A    between atoms: _33  and  _34
REMARK   17  A    between atoms: _36  and  _38
REMARK   18  A    between atoms: _38  and  _39
REMARK   19  A    between atoms: _38  and  _41
REMARK   20  A    between atoms: _41  and  _42
REMARK   21  A    between atoms: _44  and  _46
REMARK   22  A    between atoms: _46  and  _47
REMARK   23  A    between atoms: _46  and  _49
REMARK   24  A    between atoms: _49  and  _50
REMARK   25  A    between atoms: _52  and  _54
REMARK   26  A    between atoms: _54  and  _55
REMARK   27  A    between atoms: _54  and  _57
REMARK   28  A    between atoms: _57  and  _58
REMARK   29  A    between atoms: _61  and  _63
REMARK   30  A    between atoms: _63  and  _64
REMARK   31  A    between atoms: _66  and  _68
REMARK   32  A    between atoms: _68  and  _69
REMARK   33  A    between atoms: _72  and  _74
REMARK   34  A    between atoms: _74  and  _75
REMARK   35  A    between atoms: _74  and  _77
REMARK   36  A    between atoms: _77  and  _78
REMARK   37  A    between atoms: _78  and  _79
REMARK   38  A    between atoms: _82  and  _84
REMARK   39  A    between atoms: _84  and  _85
REMARK   40  A    between atoms: _84  and  _87
REMARK   41  A    between atoms: _87  and  _88
REMARK   42  A    between atoms: _90  and  _92
REMARK   43  A    between atoms: _92  and  _93
REMARK   44  A    between atoms: _92  and  _95
REMARK   45  A    between atoms: _95  and  _96
REMARK   46  A    between atoms: _101  and  _103
REMARK   47  A    between atoms: _103  and  _104
REMARK   48  A    between atoms: _103  and  _106
REMARK   49  A    between atoms: _106  and  _107
REMARK   50  A    between atoms: _107  and  _108
REMARK   51  A    between atoms: _111  and  _113
REMARK   52  A    between atoms: _113  and  _114
REMARK   53  A    between atoms: _113  and  _116
REMARK   54  A    between atoms: _116  and  _117
REMARK   55  A    between atoms: _119  and  _121
REMARK   56  A    between atoms: _121  and  _122
REMARK   57  A    between atoms: _121  and  _124
REMARK   58  A    between atoms: _124  and  _125
REMARK   59  A    between atoms: _135  and  _137
REMARK   60  A    between atoms: _137  and  _138
REMARK   61  A    between atoms: _137  and  _140
REMARK   62  A    between atoms: _140  and  _141
REMARK   63  A    between atoms: _146  and  _148
REMARK   64  A    between atoms: _148  and  _149
REMARK   65  A    between atoms: _151  and  _153
REMARK   66  A    between atoms: _153  and  _154
REMARK   67  A    between atoms: _153  and  _156
REMARK   68  A    between atoms: _156  and  _157
REMARK   69  A    between atoms: _157  and  _158
REMARK   70  A    between atoms: _160  and  _162
REMARK   71  A    between atoms: _162  and  _163
REMARK   72  A    between atoms: _162  and  _165
REMARK   73  A    between atoms: _165  and  _166
REMARK   74  A    between atoms: _169  and  _171
REMARK   75  A    between atoms: _171  and  _172
REMARK   76  A    between atoms: _175  and  _177
REMARK   77  A    between atoms: _177  and  _178
REMARK   78  A    between atoms: _177  and  _180
REMARK   79  A    between atoms: _180  and  _181
REMARK   80  A    between atoms: _184  and  _186
REMARK   81  A    between atoms: _186  and  _187
REMARK   82  A    between atoms: _186  and  _189
REMARK   83  A    between atoms: _189  and  _190
REMARK   84  A    between atoms: _192  and  _194
REMARK   85  A    between atoms: _194  and  _195
REMARK   86  A    between atoms: _198  and  _200
REMARK   87  A    between atoms: _200  and  _201
REMARK   88  A    between atoms: _200  and  _203
REMARK   89  A    between atoms: _203  and  _205
REMARK   90  A    between atoms: _207  and  _209
REMARK   91  A    between atoms: _209  and  _210
REMARK   92  A    between atoms: _213  and  _215
REMARK   93  A    between atoms: _215  and  _216
REMARK   94  A    between atoms: _215  and  _218
REMARK   95  A    between atoms: _218  and  _219
REMARK   96  A    between atoms: _219  and  _220
REMARK   97  A    between atoms: _224  and  _225
REMARK   98  A    between atoms: _230  and  _232
REMARK   99  A    between atoms: _232  and  _233
REMARK  100  A    between atoms: _232  and  _235
REMARK  101  A    between atoms: _235  and  _236
REMARK  102  A    between atoms: _239  and  _241
REMARK  103  A    between atoms: _241  and  _242
REMARK  104  A    between atoms: _241  and  _244
REMARK  105  A    between atoms: _244  and  _245
REMARK  106  A    between atoms: _248  and  _250
REMARK  107  A    between atoms: _250  and  _251
REMARK  108  A    between atoms: _250  and  _253
REMARK  109  A    between atoms: _253  and  _254
REMARK  110  A    between atoms: _256  and  _258
REMARK  111  A    between atoms: _258  and  _259
REMARK  112  A    between atoms: _258  and  _261
REMARK  113  A    between atoms: _261  and  _262
REMARK  114  A    between atoms: _264  and  _266
REMARK  115  A    between atoms: _266  and  _267
REMARK  116  A    between atoms: _269  and  _271
REMARK  117  A    between atoms: _271  and  _272
REMARK  118  A    between atoms: _274  and  _276
REMARK  119  A    between atoms: _276  and  _277
REMARK  120  A    between atoms: _276  and  _279
REMARK  121  A    between atoms: _279  and  _280
REMARK  122  A    between atoms: _283  and  _285
REMARK  123  A    between atoms: _285  and  _286
REMARK  124  A    between atoms: _285  and  _288
REMARK  125  A    between atoms: _288  and  _289
REMARK  126  A    between atoms: _289  and  _290
REMARK  127  A    between atoms: _293  and  _295
REMARK  128  A    between atoms: _295  and  _296
REMARK  129  A    between atoms: _299  and  _301
REMARK  130  A    between atoms: _301  and  _302
REMARK  131  A    between atoms: _301  and  _304
REMARK  132  A    between atoms: _304  and  _305
REMARK  133  A    between atoms: _305  and  _306
REMARK  134  A    between atoms: _311  and  _313
REMARK  135  A    between atoms: _313  and  _314
REMARK  136  A    between atoms: _313  and  _316
REMARK  137  A    between atoms: _316  and  _317
REMARK  138  A    between atoms: _320  and  _322
REMARK  139  A    between atoms: _322  and  _323
REMARK  140  A    between atoms: _322  and  _325
REMARK  141  A    between atoms: _325  and  _326
REMARK  142  A    between atoms: _329  and  _331
REMARK  143  A    between atoms: _331  and  _332
REMARK  144  A    between atoms: _331  and  _334
REMARK  145  A    between atoms: _334  and  _335
REMARK  146  A    between atoms: _338  and  _340
REMARK  147  A    between atoms: _340  and  _341
REMARK  148  A    between atoms: _340  and  _343
REMARK  149  A    between atoms: _343  and  _344
REMARK  150  A    between atoms: _346  and  _348
REMARK  151  A    between atoms: _348  and  _349
REMARK  152  A    between atoms: _348  and  _351
REMARK  153  A    between atoms: _351  and  _352
REMARK  154  A    between atoms: _352  and  _353
REMARK  155  A    between atoms: _353  and  _354
REMARK  156  A    between atoms: _354  and  _355
REMARK  157  A    between atoms: _360  and  _361
REMARK  158  A    between atoms: _366  and  _368
REMARK  159  A    between atoms: _368  and  _369
REMARK  160  A    between atoms: _368  and  _371
REMARK  161  A    between atoms: _371  and  _372
REMARK  162  A    between atoms: _375  and  _377
REMARK  163  A    between atoms: _377  and  _378
REMARK  164  A    between atoms: _381  and  _383
REMARK  165  A    between atoms: _383  and  _384
REMARK  166  A    between atoms: _383  and  _386
REMARK  167  A    between atoms: _386  and  _387
REMARK  168  A    between atoms: _392  and  _394
REMARK  169  A    between atoms: _394  and  _395
REMARK  170  A    between atoms: _394  and  _397
REMARK  171  A    between atoms: _400  and  _402
REMARK  172  A    between atoms: _402  and  _403
REMARK  173  A    between atoms: _402  and  _405
REMARK  174  A    between atoms: _405  and  _406
REMARK  175  A    between atoms: _406  and  _407
REMARK  176  A    between atoms: _407  and  _408
REMARK  177  A    between atoms: _417  and  _419
REMARK  178  A    between atoms: _419  and  _420
REMARK  179  A    between atoms: _419  and  _422
REMARK  180  A    between atoms: _422  and  _423
REMARK  181  A    between atoms: _428  and  _430
REMARK  182  A    between atoms: _430  and  _431
REMARK  183  A    between atoms: _430  and  _433
REMARK  184  A    between atoms: _433  and  _434
REMARK  185  A    between atoms: _440  and  _442
REMARK  186  A    between atoms: _442  and  _443
REMARK  187  A    between atoms: _442  and  _445
REMARK  188  A    between atoms: _445  and  _446
REMARK  189  A    between atoms: _448  and  _450
REMARK  190  A    between atoms: _450  and  _451
REMARK  191  A    between atoms: _450  and  _453
REMARK  192  A    between atoms: _453  and  _454
REMARK  193  A    between atoms: _454  and  _455
REMARK  194  A    between atoms: _458  and  _460
REMARK  195  A    between atoms: _460  and  _461
REMARK  196  A    between atoms: _460  and  _463
REMARK  197  A    between atoms: _463  and  _464
REMARK  198  A    between atoms: _466  and  _468
REMARK  199  A    between atoms: _468  and  _469
REMARK  200  A    between atoms: _468  and  _471
REMARK  201  A    between atoms: _471  and  _472
REMARK  202  A    between atoms: _472  and  _473
REMARK  203  A    between atoms: _476  and  _478
REMARK  204  A    between atoms: _478  and  _479
REMARK  205  A    between atoms: _478  and  _481
REMARK  206  A    between atoms: _481  and  _482
REMARK  207  A    between atoms: _485  and  _487
REMARK  208  A    between atoms: _487  and  _488
REMARK  209  A    between atoms: _487  and  _490
REMARK  210  A    between atoms: _490  and  _491
REMARK  211  A    between atoms: _497  and  _499
REMARK  212  A    between atoms: _499  and  _500
REMARK  213  A    between atoms: _499  and  _502
REMARK  214  A    between atoms: _502  and  _503
REMARK  215  A    between atoms: _508  and  _509
REMARK  216  A    between atoms: _511  and  _513
REMARK  217  A    between atoms: _513  and  _514
REMARK  218  A    between atoms: _513  and  _516
REMARK  219  A    between atoms: _516  and  _517
REMARK  220  A    between atoms: _520  and  _522
REMARK  221  A    between atoms: _522  and  _523
REMARK  222  A    between atoms: _522  and  _525
REMARK  223  A    between atoms: _525  and  _526
REMARK  224  A    between atoms: _529  and  _531
REMARK  225  A    between atoms: _531  and  _532
REMARK  226  A    between atoms: _531  and  _534
REMARK  227  A    between atoms: _534  and  _535
REMARK  228  A    between atoms: _540  and  _542
REMARK  229  A    between atoms: _542  and  _543
REMARK  230  A    between atoms: _542  and  _545
REMARK                            x       y       z     vdW  Elec       q    Type
REMARK                         _______ _______ _______ _____ _____    ______ ____
ROOT
ATOM      1  O   HOH     1       8.680  49.640  15.080  0.00  0.00    +0.000 OA
ENDROOT
TORSDOF 0
REMARK  Name = ../refined-set-2016/1m0o/1m0o_pocket.pdb
REMARK  230 active torsions:
REMARK  status: ('A' for Active; 'I' for Inactive)
REMARK    1  A    between atoms: _1  and  _3
REMARK    2  A    between atoms: _3  and  _4
REMARK    3  A    between atoms: _3  and  _6
REMARK    4  A    between atoms: _6  and  _7
REMARK    5  A    between atoms: _10  and  _12
REMARK    6  A    between atoms: _12  and  _13
REMARK    7  A    between atoms: _15  and  _17
REMARK    8  A    between atoms: _17  and  _18
REMARK    9  A    between atoms: _17  and  _20
REMARK   10  A    between atoms: _20  and  _21
REMARK   11  A    between atoms: _21  and  _22
REMARK   12  A    between atoms: _27  and  _29
REMARK   13  A    between atoms: _29  and  _30
REMARK   14  A    between atoms: _29  and  _32
REMARK   15  A    between atoms: _32  and  _33
REMARK   16  A    between atoms: _33  and  _34
REMARK   17  A    between atoms: _36  and  _38
REMARK   18  A    between atoms: _38  and  _39
REMARK   19  A    between atoms: _38  and  _41
REMARK   20  A    between atoms: _41  and  _42
REMARK   21  A    between atoms: _44  and  _46
REMARK   22  A    between atoms: _46  and  _47
REMARK   23  A    between atoms: _46  and  _49
REMARK   24  A    between atoms: _49  and  _50
REMARK   25  A    between atoms: _52  and  _54
REMARK   26  A    between atoms: _54  and  _55
REMARK   27  A    between atoms: _54  and  _57
REMARK   28  A    between atoms: _57  and  _58
REMARK   29  A    between atoms: _61  and  _63
REMARK   30  A    between atoms: _63  and  _64
REMARK   31  A    between atoms: _66  and  _68
REMARK   32  A    between atoms: _68  and  _69
REMARK   33  A    between atoms: _72  and  _74
REMARK   34  A    between atoms: _74  and  _75
REMARK   35  A    between atoms: _74  and  _77
REMARK   36  A    between atoms: _77  and  _78
REMARK   37  A    between atoms: _78  and  _79
REMARK   38  A    between atoms: _82  and  _84
REMARK   39  A    between atoms: _84  and  _85
REMARK   40  A    between atoms: _84  and  _87
REMARK   41  A    between atoms: _87  and  _88
REMARK   42  A    between atoms: _90  and  _92
REMARK   43  A    between atoms: _92  and  _93
REMARK   44  A    between atoms: _92  and  _95
REMARK   45  A    between atoms: _95  and  _96
REMARK   46  A    between atoms: _101  and  _103
REMARK   47  A    between atoms: _103  and  _104
REMARK   48  A    between atoms: _103  and  _106
REMARK   49  A    between atoms: _106  and  _107
REMARK   50  A    between atoms: _107  and  _108
REMARK   51  A    between atoms: _111  and  _113
REMARK   52  A    between atoms: _113  and  _114
REMARK   53  A    between atoms: _113  and  _116
REMARK   54  A    between atoms: _116  and  _117
REMARK   55  A    between atoms: _119  and  _121
REMARK   56  A    between atoms: _121  and  _122
REMARK   57  A    between atoms: _121  and  _124
REMARK   58  A    between atoms: _124  and  _125
REMARK   59  A    between atoms: _135  and  _137
REMARK   60  A    between atoms: _137  and  _138
REMARK   61  A    between atoms: _137  and  _140
REMARK   62  A    between atoms: _140  and  _141
REMARK   63  A    between atoms: _146  and  _148
REMARK   64  A    between atoms: _148  and  _149
REMARK   65  A    between atoms: _151  and  _153
REMARK   66  A    between atoms: _153  and  _154
REMARK   67  A    between atoms: _153  and  _156
REMARK   68  A    between atoms: _156  and  _157
REMARK   69  A    between atoms: _157  and  _158
REMARK   70  A    between atoms: _160  and  _162
REMARK   71  A    between atoms: _162  and  _163
REMARK   72  A    between atoms: _162  and  _165
REMARK   73  A    between atoms: _165  and  _166
REMARK   74  A    between atoms: _169  and  _171
REMARK   75  A    between atoms: _171  and  _172
REMARK   76  A    between atoms: _175  and  _177
REMARK   77  A    between atoms: _177  and  _178
REMARK   78  A    between atoms: _177  and  _180
REMARK   79  A    between atoms: _180  and  _181
REMARK   80  A    between atoms: _184  and  _186
REMARK   81  A    between atoms: _186  and  _187
REMARK   82  A    between atoms: _186  and  _189
REMARK   83  A    between atoms: _189  and  _190
REMARK   84  A    between atoms: _192  and  _194
REMARK   85  A    between atoms: _194  and  _195
REMARK   86  A    between atoms: _198  and  _200
REMARK   87  A    between atoms: _200  and  _201
REMARK   88  A    between atoms: _200  and  _203
REMARK   89  A    between atoms: _203  and  _205
REMARK   90  A    between atoms: _207  and  _209
REMARK   91  A    between atoms: _209  and  _210
REMARK   92  A    between atoms: _213  and  _215
REMARK   93  A    between atoms: _215  and  _216
REMARK   94  A    between atoms: _215  and  _218
REMARK   95  A    between atoms: _218  and  _219
REMARK   96  A    between atoms: _219  and  _220
REMARK   97  A    between atoms: _224  and  _225
REMARK   98  A    between atoms: _230  and  _232
REMARK   99  A    between atoms: _232  and  _233
REMARK  100  A    between atoms: _232  and  _235
REMARK  101  A    between atoms: _235  and  _236
REMARK  102  A    between atoms: _239  and  _241
REMARK  103  A    between atoms: _241  and  _242
REMARK  104  A    between atoms: _241  and  _244
REMARK  105  A    between atoms: _244  and  _245
REMARK  106  A    between atoms: _248  and  _250
REMARK  107  A    between atoms: _250  and  _251
REMARK  108  A    between atoms: _250  and  _253
REMARK  109  A    between atoms: _253  and  _254
REMARK  110  A    between atoms: _256  and  _258
REMARK  111  A    between atoms: _258  and  _259
REMARK  112  A    between atoms: _258  and  _261
REMARK  113  A    between atoms: _261  and  _262
REMARK  114  A    between atoms: _264  and  _266
REMARK  115  A    between atoms: _266  and  _267
REMARK  116  A    between atoms: _269  and  _271
REMARK  117  A    between atoms: _271  and  _272
REMARK  118  A    between atoms: _274  and  _276
REMARK  119  A    between atoms: _276  and  _277
REMARK  120  A    between atoms: _276  and  _279
REMARK  121  A    between atoms: _279  and  _280
REMARK  122  A    between atoms: _283  and  _285
REMARK  123  A    between atoms: _285  and  _286
REMARK  124  A    between atoms: _285  and  _288
REMARK  125  A    between atoms: _288  and  _289
REMARK  126  A    between atoms: _289  and  _290
REMARK  127  A    between atoms: _293  and  _295
REMARK  128  A    between atoms: _295  and  _296
REMARK  129  A    between atoms: _299  and  _301
REMARK  130  A    between atoms: _301  and  _302
REMARK  131  A    between atoms: _301  and  _304
REMARK  132  A    between atoms: _304  and  _305
REMARK  133  A    between atoms: _305  and  _306
REMARK  134  A    between atoms: _311  and  _313
REMARK  135  A    between atoms: _313  and  _314
REMARK  136  A    between atoms: _313  and  _316
REMARK  137  A    between atoms: _316  and  _317
REMARK  138  A    between atoms: _320  and  _322
REMARK  139  A    between atoms: _322  and  _323
REMARK  140  A    between atoms: _322  and  _325
REMARK  141  A    between atoms: _325  and  _326
REMARK  142  A    between atoms: _329  and  _331
REMARK  143  A    between atoms: _331  and  _332
REMARK  144  A    between atoms: _331  and  _334
REMARK  145  A    between atoms: _334  and  _335
REMARK  146  A    between atoms: _338  and  _340
REMARK  147  A    between atoms: _340  and  _341
REMARK  148  A    between atoms: _340  and  _343
REMARK  149  A    between atoms: _343  and  _344
REMARK  150  A    between atoms: _346  and  _348
REMARK  151  A    between atoms: _348  and  _349
REMARK  152  A    between atoms: _348  and  _351
REMARK  153  A    between atoms: _351  and  _352
REMARK  154  A    between atoms: _352  and  _353
REMARK  155  A    between atoms: _353  and  _354
REMARK  156  A    between atoms: _354  and  _355
REMARK  157  A    between atoms: _360  and  _361
REMARK  158  A    between atoms: _366  and  _368
REMARK  159  A    between atoms: _368  and  _369
REMARK  160  A    between atoms: _368  and  _371
REMARK  161  A    between atoms: _371  and  _372
REMARK  162  A    between atoms: _375  and  _377
REMARK  163  A    between atoms: _377  and  _378
REMARK  164  A    between atoms: _381  and  _383
REMARK  165  A    between atoms: _383  and  _384
REMARK  166  A    between atoms: _383  and  _386
REMARK  167  A    between atoms: _386  and  _387
REMARK  168  A    between atoms: _392  and  _394
REMARK  169  A    between atoms: _394  and  _395
REMARK  170  A    between atoms: _394  and  _397
REMARK  171  A    between atoms: _400  and  _402
REMARK  172  A    between atoms: _402  and  _403
REMARK  173  A    between atoms: _402  and  _405
REMARK  174  A    between atoms: _405  and  _406
REMARK  175  A    between atoms: _406  and  _407
REMARK  176  A    between atoms: _407  and  _408
REMARK  177  A    between atoms: _417  and  _419
REMARK  178  A    between atoms: _419  and  _420
REMARK  179  A    between atoms: _419  and  _422
REMARK  180  A    between atoms: _422  and  _423
REMARK  181  A    between atoms: _428  and  _430
REMARK  182  A    between atoms: _430  and  _431
REMARK  183  A    between atoms: _430  and  _433
REMARK  184  A    between atoms: _433  and  _434
REMARK  185  A    between atoms: _440  and  _442
REMARK  186  A    between atoms: _442  and  _443
REMARK  187  A    between atoms: _442  and  _445
REMARK  188  A    between atoms: _445  and  _446
REMARK  189  A    between atoms: _448  and  _450
REMARK  190  A    between atoms: _450  and  _451
REMARK  191  A    between atoms: _450  and  _453
REMARK  192  A    between atoms: _453  and  _454
REMARK  193  A    between atoms: _454  and  _455
REMARK  194  A    between atoms: _458  and  _460
REMARK  195  A    between atoms: _460  and  _461
REMARK  196  A    between atoms: _460  and  _463
REMARK  197  A    between atoms: _463  and  _464
REMARK  198  A    between atoms: _466  and  _468
REMARK  199  A    between atoms: _468  and  _469
REMARK  200  A    between atoms: _468  and  _471
REMARK  201  A    between atoms: _471  and  _472
REMARK  202  A    between atoms: _472  and  _473
REMARK  203  A    between atoms: _476  and  _478
REMARK  204  A    between atoms: _478  and  _479
REMARK  205  A    between atoms: _478  and  _481
REMARK  206  A    between atoms: _481  and  _482
REMARK  207  A    between atoms: _485  and  _487
REMARK  208  A    between atoms: _487  and  _488
REMARK  209  A    between atoms: _487  and  _490
REMARK  210  A    between atoms: _490  and  _491
REMARK  211  A    between atoms: _497  and  _499
REMARK  212  A    between atoms: _499  and  _500
REMARK  213  A    between atoms: _499  and  _502
REMARK  214  A    between atoms: _502  and  _503
REMARK  215  A    between atoms: _508  and  _509
REMARK  216  A    between atoms: _511  and  _513
REMARK  217  A    between atoms: _513  and  _514
REMARK  218  A    between atoms: _513  and  _516
REMARK  219  A    between atoms: _516  and  _517
REMARK  220  A    between atoms: _520  and  _522
REMARK  221  A    between atoms: _522  and  _523
REMARK  222  A    between atoms: _522  and  _525
REMARK  223  A    between atoms: _525  and  _526
REMARK  224  A    between atoms: _529  and  _531
REMARK  225  A    between atoms: _531  and  _532
REMARK  226  A    between atoms: _531  and  _534
REMARK  227  A    between atoms: _534  and  _535
REMARK  228  A    between atoms: _540  and  _542
REMARK  229  A    between atoms: _542  and  _543
REMARK  230  A    between atoms: _542  and  _545
REMARK                            x       y       z     vdW  Elec       q    Type
REMARK                         _______ _______ _______ _____ _____    ______ ____
ROOT
ATOM      1  O   HOH     1      23.756  47.711  16.561  0.00  0.00    +0.000 OA
ENDROOT
TORSDOF 0
REMARK  Name = ../refined-set-2016/1m0o/1m0o_pocket.pdb
REMARK  230 active torsions:
REMARK  status: ('A' for Active; 'I' for Inactive)
REMARK    1  A    between atoms: _1  and  _3
REMARK    2  A    between atoms: _3  and  _4
REMARK    3  A    between atoms: _3  and  _6
REMARK    4  A    between atoms: _6  and  _7
REMARK    5  A    between atoms: _10  and  _12
REMARK    6  A    between atoms: _12  and  _13
REMARK    7  A    between atoms: _15  and  _17
REMARK    8  A    between atoms: _17  and  _18
REMARK    9  A    between atoms: _17  and  _20
REMARK   10  A    between atoms: _20  and  _21
REMARK   11  A    between atoms: _21  and  _22
REMARK   12  A    between atoms: _27  and  _29
REMARK   13  A    between atoms: _29  and  _30
REMARK   14  A    between atoms: _29  and  _32
REMARK   15  A    between atoms: _32  and  _33
REMARK   16  A    between atoms: _33  and  _34
REMARK   17  A    between atoms: _36  and  _38
REMARK   18  A    between atoms: _38  and  _39
REMARK   19  A    between atoms: _38  and  _41
REMARK   20  A    between atoms: _41  and  _42
REMARK   21  A    between atoms: _44  and  _46
REMARK   22  A    between atoms: _46  and  _47
REMARK   23  A    between atoms: _46  and  _49
REMARK   24  A    between atoms: _49  and  _50
REMARK   25  A    between atoms: _52  and  _54
REMARK   26  A    between atoms: _54  and  _55
REMARK   27  A    between atoms: _54  and  _57
REMARK   28  A    between atoms: _57  and  _58
REMARK   29  A    between atoms: _61  and  _63
REMARK   30  A    between atoms: _63  and  _64
REMARK   31  A    between atoms: _66  and  _68
REMARK   32  A    between atoms: _68  and  _69
REMARK   33  A    between atoms: _72  and  _74
REMARK   34  A    between atoms: _74  and  _75
REMARK   35  A    between atoms: _74  and  _77
REMARK   36  A    between atoms: _77  and  _78
REMARK   37  A    between atoms: _78  and  _79
REMARK   38  A    between atoms: _82  and  _84
REMARK   39  A    between atoms: _84  and  _85
REMARK   40  A    between atoms: _84  and  _87
REMARK   41  A    between atoms: _87  and  _88
REMARK   42  A    between atoms: _90  and  _92
REMARK   43  A    between atoms: _92  and  _93
REMARK   44  A    between atoms: _92  and  _95
REMARK   45  A    between atoms: _95  and  _96
REMARK   46  A    between atoms: _101  and  _103
REMARK   47  A    between atoms: _103  and  _104
REMARK   48  A    between atoms: _103  and  _106
REMARK   49  A    between atoms: _106  and  _107
REMARK   50  A    between atoms: _107  and  _108
REMARK   51  A    between atoms: _111  and  _113
REMARK   52  A    between atoms: _113  and  _114
REMARK   53  A    between atoms: _113  and  _116
REMARK   54  A    between atoms: _116  and  _117
REMARK   55  A    between atoms: _119  and  _121
REMARK   56  A    between atoms: _121  and  _122
REMARK   57  A    between atoms: _121  and  _124
REMARK   58  A    between atoms: _124  and  _125
REMARK   59  A    between atoms: _135  and  _137
REMARK   60  A    between atoms: _137  and  _138
REMARK   61  A    between atoms: _137  and  _140
REMARK   62  A    between atoms: _140  and  _141
REMARK   63  A    between atoms: _146  and  _148
REMARK   64  A    between atoms: _148  and  _149
REMARK   65  A    between atoms: _151  and  _153
REMARK   66  A    between atoms: _153  and  _154
REMARK   67  A    between atoms: _153  and  _156
REMARK   68  A    between atoms: _156  and  _157
REMARK   69  A    between atoms: _157  and  _158
REMARK   70  A    between atoms: _160  and  _162
REMARK   71  A    between atoms: _162  and  _163
REMARK   72  A    between atoms: _162  and  _165
REMARK   73  A    between atoms: _165  and  _166
REMARK   74  A    between atoms: _169  and  _171
REMARK   75  A    between atoms: _171  and  _172
REMARK   76  A    between atoms: _175  and  _177
REMARK   77  A    between atoms: _177  and  _178
REMARK   78  A    between atoms: _177  and  _180
REMARK   79  A    between atoms: _180  and  _181
REMARK   80  A    between atoms: _184  and  _186
REMARK   81  A    between atoms: _186  and  _187
REMARK   82  A    between atoms: _186  and  _189
REMARK   83  A    between atoms: _189  and  _190
REMARK   84  A    between atoms: _192  and  _194
REMARK   85  A    between atoms: _194  and  _195
REMARK   86  A    between atoms: _198  and  _200
REMARK   87  A    between atoms: _200  and  _201
REMARK   88  A    between atoms: _200  and  _203
REMARK   89  A    between atoms: _203  and  _205
REMARK   90  A    between atoms: _207  and  _209
REMARK   91  A    between atoms: _209  and  _210
REMARK   92  A    between atoms: _213  and  _215
REMARK   93  A    between atoms: _215  and  _216
REMARK   94  A    between atoms: _215  and  _218
REMARK   95  A    between atoms: _218  and  _219
REMARK   96  A    between atoms: _219  and  _220
REMARK   97  A    between atoms: _224  and  _225
REMARK   98  A    between atoms: _230  and  _232
REMARK   99  A    between atoms: _232  and  _233
REMARK  100  A    between atoms: _232  and  _235
REMARK  101  A    between atoms: _235  and  _236
REMARK  102  A    between atoms: _239  and  _241
REMARK  103  A    between atoms: _241  and  _242
REMARK  104  A    between atoms: _241  and  _244
REMARK  105  A    between atoms: _244  and  _245
REMARK  106  A    between atoms: _248  and  _250
REMARK  107  A    between atoms: _250  and  _251
REMARK  108  A    between atoms: _250  and  _253
REMARK  109  A    between atoms: _253  and  _254
REMARK  110  A    between atoms: _256  and  _258
REMARK  111  A    between atoms: _258  and  _259
REMARK  112  A    between atoms: _258  and  _261
REMARK  113  A    between atoms: _261  and  _262
REMARK  114  A    between atoms: _264  and  _266
REMARK  115  A    between atoms: _266  and  _267
REMARK  116  A    between atoms: _269  and  _271
REMARK  117  A    between atoms: _271  and  _272
REMARK  118  A    between atoms: _274  and  _276
REMARK  119  A    between atoms: _276  and  _277
REMARK  120  A    between atoms: _276  and  _279
REMARK  121  A    between atoms: _279  and  _280
REMARK  122  A    between atoms: _283  and  _285
REMARK  123  A    between atoms: _285  and  _286
REMARK  124  A    between atoms: _285  and  _288
REMARK  125  A    between atoms: _288  and  _289
REMARK  126  A    between atoms: _289  and  _290
REMARK  127  A    between atoms: _293  and  _295
REMARK  128  A    between atoms: _295  and  _296
REMARK  129  A    between atoms: _299  and  _301
REMARK  130  A    between atoms: _301  and  _302
REMARK  131  A    between atoms: _301  and  _304
REMARK  132  A    between atoms: _304  and  _305
REMARK  133  A    between atoms: _305  and  _306
REMARK  134  A    between atoms: _311  and  _313
REMARK  135  A    between atoms: _313  and  _314
REMARK  136  A    between atoms: _313  and  _316
REMARK  137  A    between atoms: _316  and  _317
REMARK  138  A    between atoms: _320  and  _322
REMARK  139  A    between atoms: _322  and  _323
REMARK  140  A    between atoms: _322  and  _325
REMARK  141  A    between atoms: _325  and  _326
REMARK  142  A    between atoms: _329  and  _331
REMARK  143  A    between atoms: _331  and  _332
REMARK  144  A    between atoms: _331  and  _334
REMARK  145  A    between atoms: _334  and  _335
REMARK  146  A    between atoms: _338  and  _340
REMARK  147  A    between atoms: _340  and  _341
REMARK  148  A    between atoms: _340  and  _343
REMARK  149  A    between atoms: _343  and  _344
REMARK  150  A    between atoms: _346  and  _348
REMARK  151  A    between atoms: _348  and  _349
REMARK  152  A    between atoms: _348  and  _351
REMARK  153  A    between atoms: _351  and  _352
REMARK  154  A    between atoms: _352  and  _353
REMARK  155  A    between atoms: _353  and  _354
REMARK  156  A    between atoms: _354  and  _355
REMARK  157  A    between atoms: _360  and  _361
REMARK  158  A    between atoms: _366  and  _368
REMARK  159  A    between atoms: _368  and  _369
REMARK  160  A    between atoms: _368  and  _371
REMARK  161  A    between atoms: _371  and  _372
REMARK  162  A    between atoms: _375  and  _377
REMARK  163  A    between atoms: _377  and  _378
REMARK  164  A    between atoms: _381  and  _383
REMARK  165  A    between atoms: _383  and  _384
REMARK  166  A    between atoms: _383  and  _386
REMARK  167  A    between atoms: _386  and  _387
REMARK  168  A    between atoms: _392  and  _394
REMARK  169  A    between atoms: _394  and  _395
REMARK  170  A    between atoms: _394  and  _397
REMARK  171  A    between atoms: _400  and  _402
REMARK  172  A    between atoms: _402  and  _403
REMARK  173  A    between atoms: _402  and  _405
REMARK  174  A    between atoms: _405  and  _406
REMARK  175  A    between atoms: _406  and  _407
REMARK  176  A    between atoms: _407  and  _408
REMARK  177  A    between atoms: _417  and  _419
REMARK  178  A    between atoms: _419  and  _420
REMARK  179  A    between atoms: _419  and  _422
REMARK  180  A    between atoms: _422  and  _423
REMARK  181  A    between atoms: _428  and  _430
REMARK  182  A    between atoms: _430  and  _431
REMARK  183  A    between atoms: _430  and  _433
REMARK  184  A    between atoms: _433  and  _434
REMARK  185  A    between atoms: _440  and  _442
REMARK  186  A    between atoms: _442  and  _443
REMARK  187  A    between atoms: _442  and  _445
REMARK  188  A    between atoms: _445  and  _446
REMARK  189  A    between atoms: _448  and  _450
REMARK  190  A    between atoms: _450  and  _451
REMARK  191  A    between atoms: _450  and  _453
REMARK  192  A    between atoms: _453  and  _454
REMARK  193  A    between atoms: _454  and  _455
REMARK  194  A    between atoms: _458  and  _460
REMARK  195  A    between atoms: _460  and  _461
REMARK  196  A    between atoms: _460  and  _463
REMARK  197  A    between atoms: _463  and  _464
REMARK  198  A    between atoms: _466  and  _468
REMARK  199  A    between atoms: _468  and  _469
REMARK  200  A    between atoms: _468  and  _471
REMARK  201  A    between atoms: _471  and  _472
REMARK  202  A    between atoms: _472  and  _473
REMARK  203  A    between atoms: _476  and  _478
REMARK  204  A    between atoms: _478  and  _479
REMARK  205  A    between atoms: _478  and  _481
REMARK  206  A    between atoms: _481  and  _482
REMARK  207  A    between atoms: _485  and  _487
REMARK  208  A    between atoms: _487  and  _488
REMARK  209  A    between atoms: _487  and  _490
REMARK  210  A    between atoms: _490  and  _491
REMARK  211  A    between atoms: _497  and  _499
REMARK  212  A    between atoms: _499  and  _500
REMARK  213  A    between atoms: _499  and  _502
REMARK  214  A    between atoms: _502  and  _503
REMARK  215  A    between atoms: _508  and  _509
REMARK  216  A    between atoms: _511  and  _513
REMARK  217  A    between atoms: _513  and  _514
REMARK  218  A    between atoms: _513  and  _516
REMARK  219  A    between atoms: _516  and  _517
REMARK  220  A    between atoms: _520  and  _522
REMARK  221  A    between atoms: _522  and  _523
REMARK  222  A    between atoms: _522  and  _525
REMARK  223  A    between atoms: _525  and  _526
REMARK  224  A    between atoms: _529  and  _531
REMARK  225  A    between atoms: _531  and  _532
REMARK  226  A    between atoms: _531  and  _534
REMARK  227  A    between atoms: _534  and  _535
REMARK  228  A    between atoms: _540  and  _542
REMARK  229  A    between atoms: _542  and  _543
REMARK  230  A    between atoms: _542  and  _545
REMARK                            x       y       z     vdW  Elec       q    Type
REMARK                         _______ _______ _______ _____ _____    ______ ____
ROOT
ATOM      1  O   HOH     1      22.704  44.280  19.065  0.00  0.00    +0.000 OA
ENDROOT
TORSDOF 0
REMARK  Name = ../refined-set-2016/1m0o/1m0o_pocket.pdb
REMARK  230 active torsions:
REMARK  status: ('A' for Active; 'I' for Inactive)
REMARK    1  A    between atoms: _1  and  _3
REMARK    2  A    between atoms: _3  and  _4
REMARK    3  A    between atoms: _3  and  _6
REMARK    4  A    between atoms: _6  and  _7
REMARK    5  A    between atoms: _10  and  _12
REMARK    6  A    between atoms: _12  and  _13
REMARK    7  A    between atoms: _15  and  _17
REMARK    8  A    between atoms: _17  and  _18
REMARK    9  A    between atoms: _17  and  _20
REMARK   10  A    between atoms: _20  and  _21
REMARK   11  A    between atoms: _21  and  _22
REMARK   12  A    between atoms: _27  and  _29
REMARK   13  A    between atoms: _29  and  _30
REMARK   14  A    between atoms: _29  and  _32
REMARK   15  A    between atoms: _32  and  _33
REMARK   16  A    between atoms: _33  and  _34
REMARK   17  A    between atoms: _36  and  _38
REMARK   18  A    between atoms: _38  and  _39
REMARK   19  A    between atoms: _38  and  _41
REMARK   20  A    between atoms: _41  and  _42
REMARK   21  A    between atoms: _44  and  _46
REMARK   22  A    between atoms: _46  and  _47
REMARK   23  A    between atoms: _46  and  _49
REMARK   24  A    between atoms: _49  and  _50
REMARK   25  A    between atoms: _52  and  _54
REMARK   26  A    between atoms: _54  and  _55
REMARK   27  A    between atoms: _54  and  _57
REMARK   28  A    between atoms: _57  and  _58
REMARK   29  A    between atoms: _61  and  _63
REMARK   30  A    between atoms: _63  and  _64
REMARK   31  A    between atoms: _66  and  _68
REMARK   32  A    between atoms: _68  and  _69
REMARK   33  A    between atoms: _72  and  _74
REMARK   34  A    between atoms: _74  and  _75
REMARK   35  A    between atoms: _74  and  _77
REMARK   36  A    between atoms: _77  and  _78
REMARK   37  A    between atoms: _78  and  _79
REMARK   38  A    between atoms: _82  and  _84
REMARK   39  A    between atoms: _84  and  _85
REMARK   40  A    between atoms: _84  and  _87
REMARK   41  A    between atoms: _87  and  _88
REMARK   42  A    between atoms: _90  and  _92
REMARK   43  A    between atoms: _92  and  _93
REMARK   44  A    between atoms: _92  and  _95
REMARK   45  A    between atoms: _95  and  _96
REMARK   46  A    between atoms: _101  and  _103
REMARK   47  A    between atoms: _103  and  _104
REMARK   48  A    between atoms: _103  and  _106
REMARK   49  A    between atoms: _106  and  _107
REMARK   50  A    between atoms: _107  and  _108
REMARK   51  A    between atoms: _111  and  _113
REMARK   52  A    between atoms: _113  and  _114
REMARK   53  A    between atoms: _113  and  _116
REMARK   54  A    between atoms: _116  and  _117
REMARK   55  A    between atoms: _119  and  _121
REMARK   56  A    between atoms: _121  and  _122
REMARK   57  A    between atoms: _121  and  _124
REMARK   58  A    between atoms: _124  and  _125
REMARK   59  A    between atoms: _135  and  _137
REMARK   60  A    between atoms: _137  and  _138
REMARK   61  A    between atoms: _137  and  _140
REMARK   62  A    between atoms: _140  and  _141
REMARK   63  A    between atoms: _146  and  _148
REMARK   64  A    between atoms: _148  and  _149
REMARK   65  A    between atoms: _151  and  _153
REMARK   66  A    between atoms: _153  and  _154
REMARK   67  A    between atoms: _153  and  _156
REMARK   68  A    between atoms: _156  and  _157
REMARK   69  A    between atoms: _157  and  _158
REMARK   70  A    between atoms: _160  and  _162
REMARK   71  A    between atoms: _162  and  _163
REMARK   72  A    between atoms: _162  and  _165
REMARK   73  A    between atoms: _165  and  _166
REMARK   74  A    between atoms: _169  and  _171
REMARK   75  A    between atoms: _171  and  _172
REMARK   76  A    between atoms: _175  and  _177
REMARK   77  A    between atoms: _177  and  _178
REMARK   78  A    between atoms: _177  and  _180
REMARK   79  A    between atoms: _180  and  _181
REMARK   80  A    between atoms: _184  and  _186
REMARK   81  A    between atoms: _186  and  _187
REMARK   82  A    between atoms: _186  and  _189
REMARK   83  A    between atoms: _189  and  _190
REMARK   84  A    between atoms: _192  and  _194
REMARK   85  A    between atoms: _194  and  _195
REMARK   86  A    between atoms: _198  and  _200
REMARK   87  A    between atoms: _200  and  _201
REMARK   88  A    between atoms: _200  and  _203
REMARK   89  A    between atoms: _203  and  _205
REMARK   90  A    between atoms: _207  and  _209
REMARK   91  A    between atoms: _209  and  _210
REMARK   92  A    between atoms: _213  and  _215
REMARK   93  A    between atoms: _215  and  _216
REMARK   94  A    between atoms: _215  and  _218
REMARK   95  A    between atoms: _218  and  _219
REMARK   96  A    between atoms: _219  and  _220
REMARK   97  A    between atoms: _224  and  _225
REMARK   98  A    between atoms: _230  and  _232
REMARK   99  A    between atoms: _232  and  _233
REMARK  100  A    between atoms: _232  and  _235
REMARK  101  A    between atoms: _235  and  _236
REMARK  102  A    between atoms: _239  and  _241
REMARK  103  A    between atoms: _241  and  _242
REMARK  104  A    between atoms: _241  and  _244
REMARK  105  A    between atoms: _244  and  _245
REMARK  106  A    between atoms: _248  and  _250
REMARK  107  A    between atoms: _250  and  _251
REMARK  108  A    between atoms: _250  and  _253
REMARK  109  A    between atoms: _253  and  _254
REMARK  110  A    between atoms: _256  and  _258
REMARK  111  A    between atoms: _258  and  _259
REMARK  112  A    between atoms: _258  and  _261
REMARK  113  A    between atoms: _261  and  _262
REMARK  114  A    between atoms: _264  and  _266
REMARK  115  A    between atoms: _266  and  _267
REMARK  116  A    between atoms: _269  and  _271
REMARK  117  A    between atoms: _271  and  _272
REMARK  118  A    between atoms: _274  and  _276
REMARK  119  A    between atoms: _276  and  _277
REMARK  120  A    between atoms: _276  and  _279
REMARK  121  A    between atoms: _279  and  _280
REMARK  122  A    between atoms: _283  and  _285
REMARK  123  A    between atoms: _285  and  _286
REMARK  124  A    between atoms: _285  and  _288
REMARK  125  A    between atoms: _288  and  _289
REMARK  126  A    between atoms: _289  and  _290
REMARK  127  A    between atoms: _293  and  _295
REMARK  128  A    between atoms: _295  and  _296
REMARK  129  A    between atoms: _299  and  _301
REMARK  130  A    between atoms: _301  and  _302
REMARK  131  A    between atoms: _301  and  _304
REMARK  132  A    between atoms: _304  and  _305
REMARK  133  A    between atoms: _305  and  _306
REMARK  134  A    between atoms: _311  and  _313
REMARK  135  A    between atoms: _313  and  _314
REMARK  136  A    between atoms: _313  and  _316
REMARK  137  A    between atoms: _316  and  _317
REMARK  138  A    between atoms: _320  and  _322
REMARK  139  A    between atoms: _322  and  _323
REMARK  140  A    between atoms: _322  and  _325
REMARK  141  A    between atoms: _325  and  _326
REMARK  142  A    between atoms: _329  and  _331
REMARK  143  A    between atoms: _331  and  _332
REMARK  144  A    between atoms: _331  and  _334
REMARK  145  A    between atoms: _334  and  _335
REMARK  146  A    between atoms: _338  and  _340
REMARK  147  A    between atoms: _340  and  _341
REMARK  148  A    between atoms: _340  and  _343
REMARK  149  A    between atoms: _343  and  _344
REMARK  150  A    between atoms: _346  and  _348
REMARK  151  A    between atoms: _348  and  _349
REMARK  152  A    between atoms: _348  and  _351
REMARK  153  A    between atoms: _351  and  _352
REMARK  154  A    between atoms: _352  and  _353
REMARK  155  A    between atoms: _353  and  _354
REMARK  156  A    between atoms: _354  and  _355
REMARK  157  A    between atoms: _360  and  _361
REMARK  158  A    between atoms: _366  and  _368
REMARK  159  A    between atoms: _368  and  _369
REMARK  160  A    between atoms: _368  and  _371
REMARK  161  A    between atoms: _371  and  _372
REMARK  162  A    between atoms: _375  and  _377
REMARK  163  A    between atoms: _377  and  _378
REMARK  164  A    between atoms: _381  and  _383
REMARK  165  A    between atoms: _383  and  _384
REMARK  166  A    between atoms: _383  and  _386
REMARK  167  A    between atoms: _386  and  _387
REMARK  168  A    between atoms: _392  and  _394
REMARK  169  A    between atoms: _394  and  _395
REMARK  170  A    between atoms: _394  and  _397
REMARK  171  A    between atoms: _400  and  _402
REMARK  172  A    between atoms: _402  and  _403
REMARK  173  A    between atoms: _402  and  _405
REMARK  174  A    between atoms: _405  and  _406
REMARK  175  A    between atoms: _406  and  _407
REMARK  176  A    between atoms: _407  and  _408
REMARK  177  A    between atoms: _417  and  _419
REMARK  178  A    between atoms: _419  and  _420
REMARK  179  A    between atoms: _419  and  _422
REMARK  180  A    between atoms: _422  and  _423
REMARK  181  A    between atoms: _428  and  _430
REMARK  182  A    between atoms: _430  and  _431
REMARK  183  A    between atoms: _430  and  _433
REMARK  184  A    between atoms: _433  and  _434
REMARK  185  A    between atoms: _440  and  _442
REMARK  186  A    between atoms: _442  and  _443
REMARK  187  A    between atoms: _442  and  _445
REMARK  188  A    between atoms: _445  and  _446
REMARK  189  A    between atoms: _448  and  _450
REMARK  190  A    between atoms: _450  and  _451
REMARK  191  A    between atoms: _450  and  _453
REMARK  192  A    between atoms: _453  and  _454
REMARK  193  A    between atoms: _454  and  _455
REMARK  194  A    between atoms: _458  and  _460
REMARK  195  A    between atoms: _460  and  _461
REMARK  196  A    between atoms: _460  and  _463
REMARK  197  A    between atoms: _463  and  _464
REMARK  198  A    between atoms: _466  and  _468
REMARK  199  A    between atoms: _468  and  _469
REMARK  200  A    between atoms: _468  and  _471
REMARK  201  A    between atoms: _471  and  _472
REMARK  202  A    between atoms: _472  and  _473
REMARK  203  A    between atoms: _476  and  _478
REMARK  204  A    between atoms: _478  and  _479
REMARK  205  A    between atoms: _478  and  _481
REMARK  206  A    between atoms: _481  and  _482
REMARK  207  A    between atoms: _485  and  _487
REMARK  208  A    between atoms: _487  and  _488
REMARK  209  A    between atoms: _487  and  _490
REMARK  210  A    between atoms: _490  and  _491
REMARK  211  A    between atoms: _497  and  _499
REMARK  212  A    between atoms: _499  and  _500
REMARK  213  A    between atoms: _499  and  _502
REMARK  214  A    between atoms: _502  and  _503
REMARK  215  A    between atoms: _508  and  _509
REMARK  216  A    between atoms: _511  and  _513
REMARK  217  A    between atoms: _513  and  _514
REMARK  218  A    between atoms: _513  and  _516
REMARK  219  A    between atoms: _516  and  _517
REMARK  220  A    between atoms: _520  and  _522
REMARK  221  A    between atoms: _522  and  _523
REMARK  222  A    between atoms: _522  and  _525
REMARK  223  A    between atoms: _525  and  _526
REMARK  224  A    between atoms: _529  and  _531
REMARK  225  A    between atoms: _531  and  _532
REMARK  226  A    between atoms: _531  and  _534
REMARK  227  A    between atoms: _534  and  _535
REMARK  228  A    between atoms: _540  and  _542
REMARK  229  A    between atoms: _542  and  _543
REMARK  230  A    between atoms: _542  and  _545
REMARK                            x       y       z     vdW  Elec       q    Type
REMARK                         _______ _______ _______ _____ _____    ______ ____
ROOT
ATOM      1  O   HOH     1      17.727  43.888  13.189  0.00  0.00    +0.000 OA
ENDROOT
TORSDOF 0
