REMARK  Name = ../refined-set-2016/1xge/1xge_pocket.pdb
REMARK  120 active torsions:
REMARK  status: ('A' for Active; 'I' for Inactive)
REMARK    1  A    between atoms: _1  and  _3
REMARK    2  A    between atoms: _14  and  _17
REMARK    3  A    between atoms: _17  and  _18
REMARK    4  A    between atoms: _23  and  _24
REMARK    5  A    between atoms: _32  and  _34
REMARK    6  A    between atoms: _34  and  _35
REMARK    7  A    between atoms: _34  and  _37
REMARK    8  A    between atoms: _37  and  _38
REMARK    9  A    between atoms: _41  and  _43
REMARK   10  A    between atoms: _43  and  _44
REMARK   11  A    between atoms: _43  and  _46
REMARK   12  A    between atoms: _46  and  _47
REMARK   13  A    between atoms: _47  and  _48
REMARK   14  A    between atoms: _48  and  _49
REMARK   15  A    between atoms: _58  and  _60
REMARK   16  A    between atoms: _60  and  _61
REMARK   17  A    between atoms: _60  and  _63
REMARK   18  A    between atoms: _63  and  _64
REMARK   19  A    between atoms: _64  and  _65
REMARK   20  A    between atoms: _67  and  _69
REMARK   21  A    between atoms: _69  and  _70
REMARK   22  A    between atoms: _69  and  _72
REMARK   23  A    between atoms: _72  and  _73
REMARK   24  A    between atoms: _78  and  _80
REMARK   25  A    between atoms: _80  and  _81
REMARK   26  A    between atoms: _80  and  _83
REMARK   27  A    between atoms: _83  and  _84
REMARK   28  A    between atoms: _87  and  _89
REMARK   29  A    between atoms: _89  and  _90
REMARK   30  A    between atoms: _89  and  _96
REMARK   31  A    between atoms: _90  and  _91
REMARK   32  A    between atoms: _91  and  _92
REMARK   33  A    between atoms: _92  and  _93
REMARK   34  A    between atoms: _93  and  _94
REMARK   35  A    between atoms: _94  and  _98
REMARK   36  A    between atoms: _101  and  _103
REMARK   37  A    between atoms: _103  and  _104
REMARK   38  A    between atoms: _103  and  _106
REMARK   39  A    between atoms: _106  and  _107
REMARK   40  A    between atoms: _112  and  _113
REMARK   41  A    between atoms: _116  and  _117
REMARK   42  A    between atoms: _122  and  _124
REMARK   43  A    between atoms: _124  and  _125
REMARK   44  A    between atoms: _124  and  _127
REMARK   45  A    between atoms: _127  and  _128
REMARK   46  A    between atoms: _129  and  ZN_311
REMARK   47  A    between atoms: _133  and  _135
REMARK   48  A    between atoms: _135  and  _136
REMARK   49  A    between atoms: _135  and  _138
REMARK   50  A    between atoms: _138  and  _139
REMARK   51  A    between atoms: _139  and  _140
REMARK   52  A    between atoms: _143  and  _145
REMARK   53  A    between atoms: _145  and  _146
REMARK   54  A    between atoms: _145  and  _148
REMARK   55  A    between atoms: _148  and  _149
REMARK   56  A    between atoms: _153  and  ZN_311
REMARK   57  A    between atoms: _154  and  _156
REMARK   58  A    between atoms: _156  and  _157
REMARK   59  A    between atoms: _156  and  _159
REMARK   60  A    between atoms: _159  and  _160
REMARK   61  A    between atoms: _160  and  _161
REMARK   62  A    between atoms: _166  and  _168
REMARK   63  A    between atoms: _168  and  _169
REMARK   64  A    between atoms: _168  and  _171
REMARK   65  A    between atoms: _171  and  _172
REMARK   66  A    between atoms: _177  and  _179
REMARK   67  A    between atoms: _179  and  _180
REMARK   68  A    between atoms: _179  and  _182
REMARK   69  A    between atoms: _182  and  _183
REMARK   70  A    between atoms: _186  and  _188
REMARK   71  A    between atoms: _188  and  _189
REMARK   72  A    between atoms: _188  and  _191
REMARK   73  A    between atoms: _191  and  _192
REMARK   74  A    between atoms: _197  and  _198
REMARK   75  A    between atoms: _200  and  _202
REMARK   76  A    between atoms: _202  and  _203
REMARK   77  A    between atoms: _202  and  _205
REMARK   78  A    between atoms: _207  and  _209
REMARK   79  A    between atoms: _209  and  _210
REMARK   80  A    between atoms: _209  and  _212
REMARK   81  A    between atoms: _212  and  _213
REMARK   82  A    between atoms: _217  and  _218
REMARK   83  A    between atoms: _223  and  _225
REMARK   84  A    between atoms: _225  and  _226
REMARK   85  A    between atoms: _225  and  _228
REMARK   86  A    between atoms: _228  and  _229
REMARK   87  A    between atoms: _232  and  _234
REMARK   88  A    between atoms: _234  and  _235
REMARK   89  A    between atoms: _234  and  _237
REMARK   90  A    between atoms: _237  and  _238
REMARK   91  A    between atoms: _238  and  _239
REMARK   92  A    between atoms: _239  and  ZN_312
REMARK   93  A    between atoms: _241  and  _243
REMARK   94  A    between atoms: _243  and  _244
REMARK   95  A    between atoms: _243  and  _246
REMARK   96  A    between atoms: _246  and  _247
REMARK   97  A    between atoms: _249  and  _251
REMARK   98  A    between atoms: _251  and  _252
REMARK   99  A    between atoms: _256  and  _257
REMARK  100  A    between atoms: _262  and  _264
REMARK  101  A    between atoms: _264  and  _265
REMARK  102  A    between atoms: _264  and  _267
REMARK  103  A    between atoms: _267  and  _268
REMARK  104  A    between atoms: _273  and  _275
REMARK  105  A    between atoms: _275  and  _276
REMARK  106  A    between atoms: _275  and  _278
REMARK  107  A    between atoms: _278  and  _279
REMARK  108  A    between atoms: _279  and  _280
REMARK  109  A    between atoms: _280  and  _281
REMARK  110  A    between atoms: _281  and  _282
REMARK  111  A    between atoms: _286  and  _288
REMARK  112  A    between atoms: _288  and  _289
REMARK  113  A    between atoms: _288  and  _291
REMARK  114  A    between atoms: _293  and  _295
REMARK  115  A    between atoms: _295  and  _296
REMARK  116  A    between atoms: _299  and  _301
REMARK  117  A    between atoms: _301  and  _302
REMARK  118  A    between atoms: _304  and  _306
REMARK  119  A    between atoms: _306  and  _307
REMARK  120  A    between atoms: _306  and  _309
REMARK                            x       y       z     vdW  Elec       q    Type
REMARK                         _______ _______ _______ _____ _____    ______ ____
ROOT
ATOM      1  C   UNK A   1      30.885  42.043  81.566  0.00  0.00    +0.000 C 
ATOM      2  C   UNK A   1      29.439  42.456  81.331  0.00  0.00    +0.000 C 
ATOM      3  O   UNK A   1      28.519  41.647  81.466  0.00  0.00    +0.000 OA
ATOM      4  N   SER A   2      29.240  43.712  80.943  0.00  0.00    +0.000 N 
ATOM      5  CA  SER A   2      27.902  44.249  80.828  0.00  0.00    +0.000 C 
ATOM      6  C   SER A   2      27.687  45.062  79.540  0.00  0.00    +0.000 C 
ATOM      7  O   SER A   2      28.565  45.832  79.119  0.00  0.00    +0.000 OA
ATOM      8  N   UNK A   3      26.505  44.897  78.947  0.00  0.00    +0.000 N 
ATOM      9  H   UNK A   3      25.888  44.119  79.258  0.00  0.00    +0.000 HD
ATOM     10  C   UNK A   3      26.048  45.782  77.867  0.00  0.00    +0.000 C 
ATOM     11  C   UNK A   3      25.635  44.978  76.627  0.00  0.00    +0.000 C 
ATOM     12  C   UNK A   3      26.750  44.177  76.042  0.00  0.00    +0.000 A 
ATOM     13  C   UNK A   3      27.187  42.927  76.326  0.00  0.00    +0.000 A 
ATOM     14  N   UNK A   3      28.265  42.677  75.513  0.00  0.00    +0.000 N 
ATOM     15 ZN   UNK A   1      29.299  40.927  75.751  0.00  0.00    +0.000 Zn
ATOM     16  N   UNK A   1      30.673  40.651  77.321  0.00  0.00    +0.000 N 
ATOM     17  C   UNK A   1      30.221  41.035  78.565  0.00  0.00    +0.000 A 
ATOM     18  C   UNK A   1      31.107  40.569  79.481  0.00  0.00    +0.000 A 
ATOM     19  N   UNK A   1      32.069  39.888  78.763  0.00  0.00    +0.000 NA
ATOM     20  C   UNK A   1      31.784  39.951  77.470  0.00  0.00    +0.000 A 
ATOM     21  O   UNK A   1      31.010  41.805  74.556  0.00  0.00    +0.000 OA
ATOM     22  C   UNK A   1      32.136  41.285  74.502  0.00  0.00    +0.000 C 
ATOM     23  O   UNK A   1      32.270  40.083  74.186  0.00  0.00    +0.000 OA
ATOM     24 ZN   UNK A   1      31.073  38.670  73.663  0.00  0.00    +0.000 Zn
ATOM     25  O   UNK A   1      29.137  39.558  74.362  0.00  0.00    +0.000 OA
ATOM     26  C   UNK A   3      28.493  43.747  74.768  0.00  0.00    +0.000 A 
ATOM     27  N   UNK A   3      27.596  44.670  75.070  0.00  0.00    +0.000 NA
ATOM     28  H   SER A   2      30.057  44.316  80.719  0.00  0.00    +0.000 HD
ATOM     29  C   UNK A   1      31.135  40.645  80.987  0.00  0.00    +0.000 C 
ENDROOT
BRANCH  24  30
ATOM     30  N   UNK A   1      31.994  37.772  71.994  0.00  0.00    +0.000 N 
ATOM     31  C   UNK A   1      33.316  37.527  71.695  0.00  0.00    +0.000 A 
ATOM     32  C   UNK A   1      33.325  36.432  70.898  0.00  0.00    +0.000 A 
ATOM     33  N   UNK A   1      32.026  36.027  70.737  0.00  0.00    +0.000 NA
ATOM     34  C   UNK A   1      31.237  36.857  71.400  0.00  0.00    +0.000 A 
BRANCH  31  35
ATOM     35  C   UNK A   1      34.439  38.364  72.235  0.00  0.00    +0.000 C 
BRANCH  35  36
ATOM     36  C   UNK A   1      35.505  37.554  72.989  0.00  0.00    +0.000 C 
BRANCH  36  37
ATOM     37  N   UNK A   1      36.575  38.405  73.468  0.00  0.00    +0.000 NA
ATOM     38  H   UNK A   1      36.761  39.307  72.985  0.00  0.00    +0.000 HD
ENDBRANCH  36  37
BRANCH  36  39
ATOM     39  C   UNK A   1      36.194  36.542  72.072  0.00  0.00    +0.000 C 
ATOM     40  O   UNK A   1      36.499  36.831  70.913  0.00  0.00    +0.000 OA
ENDBRANCH  36  39
ENDBRANCH  35  36
ENDBRANCH  31  35
ENDBRANCH  24  30
BRANCH  24  41
ATOM     41  N   UNK A   1      31.464  37.132  75.042  0.00  0.00    +0.000 N 
ATOM     42  C   UNK A   1      30.815  36.993  76.241  0.00  0.00    +0.000 A 
ATOM     43  C   UNK A   1      31.177  35.793  76.756  0.00  0.00    +0.000 A 
ATOM     44  N   UNK A   1      32.037  35.228  75.840  0.00  0.00    +0.000 NA
ATOM     45  C   UNK A   1      32.214  36.069  74.833  0.00  0.00    +0.000 A 
BRANCH  43  46
ATOM     46  C   UNK A   1      30.778  35.107  78.033  0.00  0.00    +0.000 C 
BRANCH  46  47
ATOM     47  C   UNK A   1      31.946  34.452  78.790  0.00  0.00    +0.000 C 
BRANCH  47  48
ATOM     48  N   UNK A   1      33.051  35.399  78.966  0.00  0.00    +0.000 NA
ATOM     49  H   UNK A   1      32.969  36.110  79.721  0.00  0.00    +0.000 HD
ENDBRANCH  47  48
BRANCH  47  50
ATOM     50  C   UNK A   1      32.362  33.118  78.159  0.00  0.00    +0.000 C 
ATOM     51  O   UNK A   1      31.943  32.774  77.053  0.00  0.00    +0.000 OA
ENDBRANCH  47  50
ENDBRANCH  46  47
ENDBRANCH  43  46
ENDBRANCH  24  41
BRANCH  10  52
ATOM     52  C   UNK A   3      24.911  46.677  78.354  0.00  0.00    +0.000 C 
ATOM     53  O   UNK A   3      23.851  46.198  78.772  0.00  0.00    +0.000 OA
ATOM     54  N   PRO A   4      25.143  47.986  78.292  0.00  0.00    +0.000 N 
ATOM     55  H   PRO A   4      26.058  48.318  77.926  0.00  0.00    +0.000 HD
BRANCH  54  56
ATOM     56  CA  PRO A   4      24.151  48.975  78.722  0.00  0.00    +0.000 C 
BRANCH  56  57
ATOM     57  C   PRO A   4      23.447  49.701  77.569  0.00  0.00    +0.000 C 
ATOM     58  O   PRO A   4      22.484  50.444  77.804  0.00  0.00    +0.000 OA
ATOM     59  N   HIS A   5      23.911  49.485  76.328  0.00  0.00    +0.000 N 
ATOM     60  H   HIS A   5      24.710  48.834  76.190  0.00  0.00    +0.000 HD
BRANCH  59  61
ATOM     61  CA  HIS A   5      23.319  50.142  75.172  0.00  0.00    +0.000 C 
BRANCH  61  62
ATOM     62  C   HIS A   5      23.393  51.662  75.331  0.00  0.00    +0.000 C 
ATOM     63  O   HIS A   5      24.293  52.172  76.005  0.00  0.00    +0.000 OA
ENDBRANCH  61  62
BRANCH  61  64
ATOM     64  CB  HIS A   5      21.875  49.644  74.955  0.00  0.00    +0.000 C 
BRANCH  64  65
ATOM     65  CG  HIS A   5      21.720  48.116  74.993  0.00  0.00    +0.000 C 
BRANCH  65  66
ATOM     66  CD  HIS A   5      22.658  47.414  74.023  0.00  0.00    +0.000 C 
BRANCH  66  67
ATOM     67  NE  HIS A   5      22.304  46.001  73.894  0.00  0.00    +0.330 N 
ATOM     68  HE  HIS A   5      21.347  45.718  74.187  0.00  0.00    +0.000 HD
ATOM     69  CZ  HIS A   5      23.106  45.054  73.434  0.00  0.00    +0.000 C 
ATOM     70  NH2 HIS A   5      22.665  43.796  73.377  0.00  0.00    +0.330 N 
ATOM     71 HH21 HIS A   5      21.700  43.568  73.692  0.00  0.00    +0.000 HD
ATOM     72 HH22 HIS A   5      23.286  43.043  73.017  0.00  0.00    +0.000 HD
ATOM     73  NH1 HIS A   5      24.348  45.340  73.054  0.00  0.00    +0.330 N 
ATOM     74 HH11 HIS A   5      24.699  46.317  73.117  0.00  0.00    +0.000 HD
ATOM     75 HH12 HIS A   5      24.968  44.587  72.694  0.00  0.00    +0.000 HD
ENDBRANCH  66  67
ENDBRANCH  65  66
ENDBRANCH  64  65
ENDBRANCH  61  64
ENDBRANCH  59  61
ENDBRANCH  56  57
BRANCH  56  76
ATOM     76  CB  PRO A   4      24.799  49.988  79.665  0.00  0.00    +0.000 C 
BRANCH  76  77
ATOM     77  CG  PRO A   4      25.110  49.456  81.059  0.00  0.00    +0.000 C 
ATOM     78  CD2 PRO A   4      25.812  50.517  81.894  0.00  0.00    +0.000 C 
ATOM     79  CD1 PRO A   4      23.847  48.973  81.752  0.00  0.00    +0.000 C 
ENDBRANCH  76  77
ENDBRANCH  56  76
ENDBRANCH  54  56
ENDBRANCH  10  52
BRANCH   1  80
ATOM     80  N   UNK A   1      31.223  42.077  83.001  0.00  0.00    +0.000 NA
ATOM     81  H   UNK A   1      30.456  42.038  83.702  0.00  0.00    +0.000 HD
ENDBRANCH   1  80
BRANCH  22  82
ATOM     82  N   UNK A   1      33.197  42.040  74.755  0.00  0.00    +0.000 NA
ATOM     83  H   UNK A   1      33.059  43.032  75.034  0.00  0.00    +0.000 HD
BRANCH  82  84
ATOM     84  C   UNK A   1      34.577  41.503  74.650  0.00  0.00    +0.000 C 
BRANCH  84  85
ATOM     85  C   UNK A   1      35.627  42.596  74.885  0.00  0.00    +0.000 C 
BRANCH  85  86
ATOM     86  C   UNK A   1      35.394  43.841  74.050  0.00  0.00    +0.000 C 
BRANCH  86  87
ATOM     87  C   UNK A   1      36.306  44.994  74.463  0.00  0.00    +0.000 C 
BRANCH  87  88
ATOM     88  C   UNK A   1      37.806  44.733  74.327  0.00  0.00    +0.000 C 
BRANCH  88  89
ATOM     89  C   UNK A   1      38.145  44.360  72.895  0.00  0.00    +0.000 C 
ATOM     90  O   UNK A   1      38.065  45.192  72.001  0.00  0.00    +0.000 OA
ENDBRANCH  88  89
BRANCH  88  91
ATOM     91  N   UNK A   1      38.552  45.921  74.723  0.00  0.00    +0.000 NA
ATOM     92  H   UNK A   1      38.336  46.828  74.263  0.00  0.00    +0.000 HD
ENDBRANCH  88  91
ENDBRANCH  87  88
ENDBRANCH  86  87
ENDBRANCH  85  86
ENDBRANCH  84  85
ENDBRANCH  82  84
ENDBRANCH  22  82
BRANCH   5  93
ATOM     93  CB  SER A   2      27.616  45.144  82.036  0.00  0.00    +0.000 C 
BRANCH  93  94
ATOM     94  CG  SER A   2      26.264  45.823  82.107  0.00  0.00    +0.000 C 
ATOM     95  CD2 SER A   2      26.283  46.703  83.319  0.00  0.00    +0.000 C 
ATOM     96  CD1 SER A   2      25.155  44.809  82.159  0.00  0.00    +0.000 C 
ENDBRANCH  93  94
ENDBRANCH   5  93
BRANCH  15  97
ATOM     97  O   UNK A   1      27.720  40.057  76.945  0.00  0.00    +0.000 OA
BRANCH  97  98
ATOM     98  C   UNK A   1      27.575  38.825  77.165  0.00  0.00    +0.000 C 
ATOM     99  O   UNK A   1      27.532  37.954  76.250  0.00  0.00    +0.000 OA
BRANCH  98 100
ATOM    100  C   UNK A   1      27.415  38.388  78.616  0.00  0.00    +0.000 C 
BRANCH 100 101
ATOM    101  C   UNK A   1      26.958  39.537  79.524  0.00  0.00    +0.000 C 
BRANCH 101 102
ATOM    102  C   UNK A   1      25.498  39.870  79.282  0.00  0.00    +0.000 C 
ATOM    103  N   SER A   2      24.886  40.599  80.223  0.00  0.00    +0.000 N 
ATOM    104  H   SER A   2      25.384  40.820  81.109  0.00  0.00    +0.000 HD
ATOM    105  O   UNK A   1      24.944  39.507  78.253  0.00  0.00    +0.000 OA
BRANCH 103 106
ATOM    106  CA  SER A   2      23.542  41.081  80.018  0.00  0.00    +0.000 C 
BRANCH 106 107
ATOM    107  C   SER A   2      23.566  41.932  78.773  0.00  0.00    +0.000 C 
ATOM    108  O   SER A   2      24.318  42.928  78.704  0.00  0.00    +0.000 OA
ATOM    109  N   UNK A   3      22.724  41.565  77.811  0.00  0.00    +0.000 N 
ATOM    110  H   UNK A   3      21.966  40.894  78.050  0.00  0.00    +0.000 HD
BRANCH 109 111
ATOM    111  C   UNK A   3      22.807  42.055  76.435  0.00  0.00    +0.000 C 
ATOM    112  C   UNK A   3      23.609  41.088  75.606  0.00  0.00    +0.000 C 
BRANCH 111 113
ATOM    113  C   UNK A   3      21.401  42.230  75.869  0.00  0.00    +0.000 C 
ATOM    114  N   PRO A   4      20.725  43.302  76.292  0.00  0.00    +0.000 N 
ATOM    115  CD  PRO A   4      21.244  44.401  77.126  0.00  0.00    +0.000 C 
ATOM    116  CG  PRO A   4      20.125  45.376  77.188  0.00  0.00    +0.000 C 
ATOM    117  CB  PRO A   4      18.879  44.609  76.884  0.00  0.00    +0.000 C 
ATOM    118  CA  PRO A   4      19.319  43.475  75.960  0.00  0.00    +0.000 C 
ATOM    119  O   UNK A   3      20.916  41.407  75.095  0.00  0.00    +0.000 OA
BRANCH 118 120
ATOM    120  C   PRO A   4      19.047  43.853  74.503  0.00  0.00    +0.000 C 
ATOM    121  N   HIS A   5      17.994  43.249  73.956  0.00  0.00    +0.000 N 
ATOM    122  H   HIS A   5      17.564  42.457  74.475  0.00  0.00    +0.000 HD
ATOM    123  O   PRO A   4      19.754  44.689  73.925  0.00  0.00    +0.000 OA
BRANCH 121 124
ATOM    124  CA  HIS A   5      17.405  43.626  72.678  0.00  0.00    +0.000 C 
BRANCH 124 125
ATOM    125  C   HIS A   5      15.899  43.685  72.858  0.00  0.00    +0.000 C 
ATOM    126  O   HIS A   5      15.327  42.881  73.602  0.00  0.00    +0.000 OA
ENDBRANCH 124 125
BRANCH 124 127
ATOM    127  CB  HIS A   5      17.720  42.567  71.609  0.00  0.00    +0.000 C 
BRANCH 127 128
ATOM    128  CG  HIS A   5      19.180  42.427  71.304  0.00  0.00    +0.000 A 
ATOM    129  CD2 HIS A   5      20.105  41.536  71.743  0.00  0.00    +0.000 A 
ATOM    130  NE2 HIS A   5      21.301  41.859  71.142  0.00  0.00    +0.000 NA
ATOM    131  CE1 HIS A   5      21.112  42.920  70.371  0.00  0.00    +0.000 A 
ATOM    132  ND1 HIS A   5      19.840  43.278  70.445  0.00  0.00    +0.000 NA
ENDBRANCH 127 128
ENDBRANCH 124 127
ENDBRANCH 121 124
ENDBRANCH 118 120
ENDBRANCH 111 113
ENDBRANCH 109 111
ENDBRANCH 106 107
BRANCH 106 133
ATOM    133  CB  SER A   2      23.027  41.895  81.216  0.00  0.00    +0.000 C 
BRANCH 133 134
ATOM    134  OG  SER A   2      21.664  42.270  80.992  0.00  0.00    +0.000 OA
ATOM    135  H   SER A   2      21.605  42.819  80.171  0.00  0.00    +0.000 HD
ENDBRANCH 133 134
ENDBRANCH 106 133
ENDBRANCH 103 106
ENDBRANCH 101 102
BRANCH 101 136
ATOM    136  N   UNK A   1      27.207  39.286  80.948  0.00  0.00    +0.000 NA
ATOM    137  H   UNK A   1      27.983  39.799  81.413  0.00  0.00    +0.000 HD
ENDBRANCH 101 136
ENDBRANCH 100 101
ENDBRANCH  98 100
ENDBRANCH  97  98
ENDBRANCH  15  97
TORSDOF 49
REMARK  Name = ../refined-set-2016/1xge/1xge_pocket.pdb
REMARK  120 active torsions:
REMARK  status: ('A' for Active; 'I' for Inactive)
REMARK    1  A    between atoms: _1  and  _3
REMARK    2  A    between atoms: _14  and  _17
REMARK    3  A    between atoms: _17  and  _18
REMARK    4  A    between atoms: _23  and  _24
REMARK    5  A    between atoms: _32  and  _34
REMARK    6  A    between atoms: _34  and  _35
REMARK    7  A    between atoms: _34  and  _37
REMARK    8  A    between atoms: _37  and  _38
REMARK    9  A    between atoms: _41  and  _43
REMARK   10  A    between atoms: _43  and  _44
REMARK   11  A    between atoms: _43  and  _46
REMARK   12  A    between atoms: _46  and  _47
REMARK   13  A    between atoms: _47  and  _48
REMARK   14  A    between atoms: _48  and  _49
REMARK   15  A    between atoms: _58  and  _60
REMARK   16  A    between atoms: _60  and  _61
REMARK   17  A    between atoms: _60  and  _63
REMARK   18  A    between atoms: _63  and  _64
REMARK   19  A    between atoms: _64  and  _65
REMARK   20  A    between atoms: _67  and  _69
REMARK   21  A    between atoms: _69  and  _70
REMARK   22  A    between atoms: _69  and  _72
REMARK   23  A    between atoms: _72  and  _73
REMARK   24  A    between atoms: _78  and  _80
REMARK   25  A    between atoms: _80  and  _81
REMARK   26  A    between atoms: _80  and  _83
REMARK   27  A    between atoms: _83  and  _84
REMARK   28  A    between atoms: _87  and  _89
REMARK   29  A    between atoms: _89  and  _90
REMARK   30  A    between atoms: _89  and  _96
REMARK   31  A    between atoms: _90  and  _91
REMARK   32  A    between atoms: _91  and  _92
REMARK   33  A    between atoms: _92  and  _93
REMARK   34  A    between atoms: _93  and  _94
REMARK   35  A    between atoms: _94  and  _98
REMARK   36  A    between atoms: _101  and  _103
REMARK   37  A    between atoms: _103  and  _104
REMARK   38  A    between atoms: _103  and  _106
REMARK   39  A    between atoms: _106  and  _107
REMARK   40  A    between atoms: _112  and  _113
REMARK   41  A    between atoms: _116  and  _117
REMARK   42  A    between atoms: _122  and  _124
REMARK   43  A    between atoms: _124  and  _125
REMARK   44  A    between atoms: _124  and  _127
REMARK   45  A    between atoms: _127  and  _128
REMARK   46  A    between atoms: _129  and  ZN_311
REMARK   47  A    between atoms: _133  and  _135
REMARK   48  A    between atoms: _135  and  _136
REMARK   49  A    between atoms: _135  and  _138
REMARK   50  A    between atoms: _138  and  _139
REMARK   51  A    between atoms: _139  and  _140
REMARK   52  A    between atoms: _143  and  _145
REMARK   53  A    between atoms: _145  and  _146
REMARK   54  A    between atoms: _145  and  _148
REMARK   55  A    between atoms: _148  and  _149
REMARK   56  A    between atoms: _153  and  ZN_311
REMARK   57  A    between atoms: _154  and  _156
REMARK   58  A    between atoms: _156  and  _157
REMARK   59  A    between atoms: _156  and  _159
REMARK   60  A    between atoms: _159  and  _160
REMARK   61  A    between atoms: _160  and  _161
REMARK   62  A    between atoms: _166  and  _168
REMARK   63  A    between atoms: _168  and  _169
REMARK   64  A    between atoms: _168  and  _171
REMARK   65  A    between atoms: _171  and  _172
REMARK   66  A    between atoms: _177  and  _179
REMARK   67  A    between atoms: _179  and  _180
REMARK   68  A    between atoms: _179  and  _182
REMARK   69  A    between atoms: _182  and  _183
REMARK   70  A    between atoms: _186  and  _188
REMARK   71  A    between atoms: _188  and  _189
REMARK   72  A    between atoms: _188  and  _191
REMARK   73  A    between atoms: _191  and  _192
REMARK   74  A    between atoms: _197  and  _198
REMARK   75  A    between atoms: _200  and  _202
REMARK   76  A    between atoms: _202  and  _203
REMARK   77  A    between atoms: _202  and  _205
REMARK   78  A    between atoms: _207  and  _209
REMARK   79  A    between atoms: _209  and  _210
REMARK   80  A    between atoms: _209  and  _212
REMARK   81  A    between atoms: _212  and  _213
REMARK   82  A    between atoms: _217  and  _218
REMARK   83  A    between atoms: _223  and  _225
REMARK   84  A    between atoms: _225  and  _226
REMARK   85  A    between atoms: _225  and  _228
REMARK   86  A    between atoms: _228  and  _229
REMARK   87  A    between atoms: _232  and  _234
REMARK   88  A    between atoms: _234  and  _235
REMARK   89  A    between atoms: _234  and  _237
REMARK   90  A    between atoms: _237  and  _238
REMARK   91  A    between atoms: _238  and  _239
REMARK   92  A    between atoms: _239  and  ZN_312
REMARK   93  A    between atoms: _241  and  _243
REMARK   94  A    between atoms: _243  and  _244
REMARK   95  A    between atoms: _243  and  _246
REMARK   96  A    between atoms: _246  and  _247
REMARK   97  A    between atoms: _249  and  _251
REMARK   98  A    between atoms: _251  and  _252
REMARK   99  A    between atoms: _256  and  _257
REMARK  100  A    between atoms: _262  and  _264
REMARK  101  A    between atoms: _264  and  _265
REMARK  102  A    between atoms: _264  and  _267
REMARK  103  A    between atoms: _267  and  _268
REMARK  104  A    between atoms: _273  and  _275
REMARK  105  A    between atoms: _275  and  _276
REMARK  106  A    between atoms: _275  and  _278
REMARK  107  A    between atoms: _278  and  _279
REMARK  108  A    between atoms: _279  and  _280
REMARK  109  A    between atoms: _280  and  _281
REMARK  110  A    between atoms: _281  and  _282
REMARK  111  A    between atoms: _286  and  _288
REMARK  112  A    between atoms: _288  and  _289
REMARK  113  A    between atoms: _288  and  _291
REMARK  114  A    between atoms: _293  and  _295
REMARK  115  A    between atoms: _295  and  _296
REMARK  116  A    between atoms: _299  and  _301
REMARK  117  A    between atoms: _301  and  _302
REMARK  118  A    between atoms: _304  and  _306
REMARK  119  A    between atoms: _306  and  _307
REMARK  120  A    between atoms: _306  and  _309
REMARK                            x       y       z     vdW  Elec       q    Type
REMARK                         _______ _______ _______ _____ _____    ______ ____
ROOT
ATOM      1  CA  MET A   1      31.369  47.021  76.897  0.00  0.00    +0.134 C 
ENDROOT
BRANCH   1   2
ATOM      2  N   MET A   1      30.777  47.383  78.180  0.00  0.00    -0.239 NA
ATOM      3  H   MET A   1      29.919  46.895  78.507  0.00  0.00    +0.142 HD
ENDBRANCH   1   2
BRANCH   1   4
ATOM      4  C   MET A   1      31.126  48.127  75.871  0.00  0.00    +0.224 C 
ATOM      5  O   MET A   1      30.208  48.949  76.031  0.00  0.00    -0.287 OA
ENDBRANCH   1   4
BRANCH   1   6
ATOM      6  CB  MET A   1      30.870  45.661  76.419  0.00  0.00    +0.037 C 
BRANCH   6   7
ATOM      7  CG  MET A   1      31.340  44.536  77.289  0.00  0.00    +0.059 C 
BRANCH   7   8
ATOM      8  SD  MET A   1      33.136  44.450  77.304  0.00  0.00    -0.139 S 
ATOM      9  CE  MET A   1      33.401  43.106  78.445  0.00  0.00    +0.069 C 
ENDBRANCH   7   8
ENDBRANCH   6   7
ENDBRANCH   1   6
TORSDOF 5
REMARK  Name = ../refined-set-2016/1xge/1xge_pocket.pdb
REMARK  120 active torsions:
REMARK  status: ('A' for Active; 'I' for Inactive)
REMARK    1  A    between atoms: _1  and  _3
REMARK    2  A    between atoms: _14  and  _17
REMARK    3  A    between atoms: _17  and  _18
REMARK    4  A    between atoms: _23  and  _24
REMARK    5  A    between atoms: _32  and  _34
REMARK    6  A    between atoms: _34  and  _35
REMARK    7  A    between atoms: _34  and  _37
REMARK    8  A    between atoms: _37  and  _38
REMARK    9  A    between atoms: _41  and  _43
REMARK   10  A    between atoms: _43  and  _44
REMARK   11  A    between atoms: _43  and  _46
REMARK   12  A    between atoms: _46  and  _47
REMARK   13  A    between atoms: _47  and  _48
REMARK   14  A    between atoms: _48  and  _49
REMARK   15  A    between atoms: _58  and  _60
REMARK   16  A    between atoms: _60  and  _61
REMARK   17  A    between atoms: _60  and  _63
REMARK   18  A    between atoms: _63  and  _64
REMARK   19  A    between atoms: _64  and  _65
REMARK   20  A    between atoms: _67  and  _69
REMARK   21  A    between atoms: _69  and  _70
REMARK   22  A    between atoms: _69  and  _72
REMARK   23  A    between atoms: _72  and  _73
REMARK   24  A    between atoms: _78  and  _80
REMARK   25  A    between atoms: _80  and  _81
REMARK   26  A    between atoms: _80  and  _83
REMARK   27  A    between atoms: _83  and  _84
REMARK   28  A    between atoms: _87  and  _89
REMARK   29  A    between atoms: _89  and  _90
REMARK   30  A    between atoms: _89  and  _96
REMARK   31  A    between atoms: _90  and  _91
REMARK   32  A    between atoms: _91  and  _92
REMARK   33  A    between atoms: _92  and  _93
REMARK   34  A    between atoms: _93  and  _94
REMARK   35  A    between atoms: _94  and  _98
REMARK   36  A    between atoms: _101  and  _103
REMARK   37  A    between atoms: _103  and  _104
REMARK   38  A    between atoms: _103  and  _106
REMARK   39  A    between atoms: _106  and  _107
REMARK   40  A    between atoms: _112  and  _113
REMARK   41  A    between atoms: _116  and  _117
REMARK   42  A    between atoms: _122  and  _124
REMARK   43  A    between atoms: _124  and  _125
REMARK   44  A    between atoms: _124  and  _127
REMARK   45  A    between atoms: _127  and  _128
REMARK   46  A    between atoms: _129  and  ZN_311
REMARK   47  A    between atoms: _133  and  _135
REMARK   48  A    between atoms: _135  and  _136
REMARK   49  A    between atoms: _135  and  _138
REMARK   50  A    between atoms: _138  and  _139
REMARK   51  A    between atoms: _139  and  _140
REMARK   52  A    between atoms: _143  and  _145
REMARK   53  A    between atoms: _145  and  _146
REMARK   54  A    between atoms: _145  and  _148
REMARK   55  A    between atoms: _148  and  _149
REMARK   56  A    between atoms: _153  and  ZN_311
REMARK   57  A    between atoms: _154  and  _156
REMARK   58  A    between atoms: _156  and  _157
REMARK   59  A    between atoms: _156  and  _159
REMARK   60  A    between atoms: _159  and  _160
REMARK   61  A    between atoms: _160  and  _161
REMARK   62  A    between atoms: _166  and  _168
REMARK   63  A    between atoms: _168  and  _169
REMARK   64  A    between atoms: _168  and  _171
REMARK   65  A    between atoms: _171  and  _172
REMARK   66  A    between atoms: _177  and  _179
REMARK   67  A    between atoms: _179  and  _180
REMARK   68  A    between atoms: _179  and  _182
REMARK   69  A    between atoms: _182  and  _183
REMARK   70  A    between atoms: _186  and  _188
REMARK   71  A    between atoms: _188  and  _189
REMARK   72  A    between atoms: _188  and  _191
REMARK   73  A    between atoms: _191  and  _192
REMARK   74  A    between atoms: _197  and  _198
REMARK   75  A    between atoms: _200  and  _202
REMARK   76  A    between atoms: _202  and  _203
REMARK   77  A    between atoms: _202  and  _205
REMARK   78  A    between atoms: _207  and  _209
REMARK   79  A    between atoms: _209  and  _210
REMARK   80  A    between atoms: _209  and  _212
REMARK   81  A    between atoms: _212  and  _213
REMARK   82  A    between atoms: _217  and  _218
REMARK   83  A    between atoms: _223  and  _225
REMARK   84  A    between atoms: _225  and  _226
REMARK   85  A    between atoms: _225  and  _228
REMARK   86  A    between atoms: _228  and  _229
REMARK   87  A    between atoms: _232  and  _234
REMARK   88  A    between atoms: _234  and  _235
REMARK   89  A    between atoms: _234  and  _237
REMARK   90  A    between atoms: _237  and  _238
REMARK   91  A    between atoms: _238  and  _239
REMARK   92  A    between atoms: _239  and  ZN_312
REMARK   93  A    between atoms: _241  and  _243
REMARK   94  A    between atoms: _243  and  _244
REMARK   95  A    between atoms: _243  and  _246
REMARK   96  A    between atoms: _246  and  _247
REMARK   97  A    between atoms: _249  and  _251
REMARK   98  A    between atoms: _251  and  _252
REMARK   99  A    between atoms: _256  and  _257
REMARK  100  A    between atoms: _262  and  _264
REMARK  101  A    between atoms: _264  and  _265
REMARK  102  A    between atoms: _264  and  _267
REMARK  103  A    between atoms: _267  and  _268
REMARK  104  A    between atoms: _273  and  _275
REMARK  105  A    between atoms: _275  and  _276
REMARK  106  A    between atoms: _275  and  _278
REMARK  107  A    between atoms: _278  and  _279
REMARK  108  A    between atoms: _279  and  _280
REMARK  109  A    between atoms: _280  and  _281
REMARK  110  A    between atoms: _281  and  _282
REMARK  111  A    between atoms: _286  and  _288
REMARK  112  A    between atoms: _288  and  _289
REMARK  113  A    between atoms: _288  and  _291
REMARK  114  A    between atoms: _293  and  _295
REMARK  115  A    between atoms: _295  and  _296
REMARK  116  A    between atoms: _299  and  _301
REMARK  117  A    between atoms: _301  and  _302
REMARK  118  A    between atoms: _304  and  _306
REMARK  119  A    between atoms: _306  and  _307
REMARK  120  A    between atoms: _306  and  _309
REMARK                            x       y       z     vdW  Elec       q    Type
REMARK                         _______ _______ _______ _____ _____    ______ ____
ROOT
ATOM      1  C   ASN A   1      28.692  48.656  70.793  0.00  0.00    +0.239 C 
ATOM      2  N   LEU A   2      28.776  49.972  70.926  0.00  0.00    -0.298 N 
ATOM      3  H   LEU A   2      29.623  50.376  71.374  0.00  0.00    +0.150 HD
ATOM      4  O   ASN A   1      27.663  48.068  70.452  0.00  0.00    -0.274 OA
ENDROOT
BRANCH   1   5
ATOM      5  CA  ASN A   1      29.977  47.880  71.114  0.00  0.00    +0.154 C 
BRANCH   5   6
ATOM      6  N   ASN A   1      30.553  48.191  72.423  0.00  0.00    -0.238 NA
ATOM      7  H   ASN A   1      30.317  47.583  73.233  0.00  0.00    +0.142 HD
ENDBRANCH   5   6
BRANCH   5   8
ATOM      8  CB  ASN A   1      29.773  46.365  70.952  0.00  0.00    +0.111 C 
BRANCH   8   9
ATOM      9  CG  ASN A   1      28.776  45.781  71.952  0.00  0.00    +0.221 C 
ATOM     10  OD1 ASN A   1      28.589  46.298  73.053  0.00  0.00    -0.275 OA
ATOM     11  ND2 ASN A   1      28.128  44.698  71.553  0.00  0.00    -0.329 N 
ATOM     12 HD21 ASN A   1      27.429  44.250  72.179  0.00  0.00    +0.145 HD
ATOM     13 HD22 ASN A   1      28.318  44.295  70.613  0.00  0.00    +0.145 HD
ENDBRANCH   8   9
ENDBRANCH   5   8
ENDBRANCH   1   5
BRANCH   2  14
ATOM     14  CA  LEU A   2      27.732  50.871  70.471  0.00  0.00    +0.137 C 
BRANCH  14  15
ATOM     15  C   LEU A   2      27.820  51.008  68.951  0.00  0.00    +0.227 C 
ATOM     16  O   LEU A   2      28.763  50.512  68.323  0.00  0.00    -0.286 OA
ENDBRANCH  14  15
BRANCH  14  17
ATOM     17  CB  LEU A   2      27.875  52.244  71.122  0.00  0.00    +0.028 C 
BRANCH  17  18
ATOM     18  CG  LEU A   2      27.867  52.269  72.660  0.00  0.00    +0.002 C 
ATOM     19  CD2 LEU A   2      27.883  53.693  73.220  0.00  0.00    +0.000 C 
ATOM     20  CD1 LEU A   2      26.678  51.496  73.210  0.00  0.00    +0.000 C 
ENDBRANCH  17  18
ENDBRANCH  14  17
ENDBRANCH   2  14
TORSDOF 8
REMARK  Name = ../refined-set-2016/1xge/1xge_pocket.pdb
REMARK  120 active torsions:
REMARK  status: ('A' for Active; 'I' for Inactive)
REMARK    1  A    between atoms: _1  and  _3
REMARK    2  A    between atoms: _14  and  _17
REMARK    3  A    between atoms: _17  and  _18
REMARK    4  A    between atoms: _23  and  _24
REMARK    5  A    between atoms: _32  and  _34
REMARK    6  A    between atoms: _34  and  _35
REMARK    7  A    between atoms: _34  and  _37
REMARK    8  A    between atoms: _37  and  _38
REMARK    9  A    between atoms: _41  and  _43
REMARK   10  A    between atoms: _43  and  _44
REMARK   11  A    between atoms: _43  and  _46
REMARK   12  A    between atoms: _46  and  _47
REMARK   13  A    between atoms: _47  and  _48
REMARK   14  A    between atoms: _48  and  _49
REMARK   15  A    between atoms: _58  and  _60
REMARK   16  A    between atoms: _60  and  _61
REMARK   17  A    between atoms: _60  and  _63
REMARK   18  A    between atoms: _63  and  _64
REMARK   19  A    between atoms: _64  and  _65
REMARK   20  A    between atoms: _67  and  _69
REMARK   21  A    between atoms: _69  and  _70
REMARK   22  A    between atoms: _69  and  _72
REMARK   23  A    between atoms: _72  and  _73
REMARK   24  A    between atoms: _78  and  _80
REMARK   25  A    between atoms: _80  and  _81
REMARK   26  A    between atoms: _80  and  _83
REMARK   27  A    between atoms: _83  and  _84
REMARK   28  A    between atoms: _87  and  _89
REMARK   29  A    between atoms: _89  and  _90
REMARK   30  A    between atoms: _89  and  _96
REMARK   31  A    between atoms: _90  and  _91
REMARK   32  A    between atoms: _91  and  _92
REMARK   33  A    between atoms: _92  and  _93
REMARK   34  A    between atoms: _93  and  _94
REMARK   35  A    between atoms: _94  and  _98
REMARK   36  A    between atoms: _101  and  _103
REMARK   37  A    between atoms: _103  and  _104
REMARK   38  A    between atoms: _103  and  _106
REMARK   39  A    between atoms: _106  and  _107
REMARK   40  A    between atoms: _112  and  _113
REMARK   41  A    between atoms: _116  and  _117
REMARK   42  A    between atoms: _122  and  _124
REMARK   43  A    between atoms: _124  and  _125
REMARK   44  A    between atoms: _124  and  _127
REMARK   45  A    between atoms: _127  and  _128
REMARK   46  A    between atoms: _129  and  ZN_311
REMARK   47  A    between atoms: _133  and  _135
REMARK   48  A    between atoms: _135  and  _136
REMARK   49  A    between atoms: _135  and  _138
REMARK   50  A    between atoms: _138  and  _139
REMARK   51  A    between atoms: _139  and  _140
REMARK   52  A    between atoms: _143  and  _145
REMARK   53  A    between atoms: _145  and  _146
REMARK   54  A    between atoms: _145  and  _148
REMARK   55  A    between atoms: _148  and  _149
REMARK   56  A    between atoms: _153  and  ZN_311
REMARK   57  A    between atoms: _154  and  _156
REMARK   58  A    between atoms: _156  and  _157
REMARK   59  A    between atoms: _156  and  _159
REMARK   60  A    between atoms: _159  and  _160
REMARK   61  A    between atoms: _160  and  _161
REMARK   62  A    between atoms: _166  and  _168
REMARK   63  A    between atoms: _168  and  _169
REMARK   64  A    between atoms: _168  and  _171
REMARK   65  A    between atoms: _171  and  _172
REMARK   66  A    between atoms: _177  and  _179
REMARK   67  A    between atoms: _179  and  _180
REMARK   68  A    between atoms: _179  and  _182
REMARK   69  A    between atoms: _182  and  _183
REMARK   70  A    between atoms: _186  and  _188
REMARK   71  A    between atoms: _188  and  _189
REMARK   72  A    between atoms: _188  and  _191
REMARK   73  A    between atoms: _191  and  _192
REMARK   74  A    between atoms: _197  and  _198
REMARK   75  A    between atoms: _200  and  _202
REMARK   76  A    between atoms: _202  and  _203
REMARK   77  A    between atoms: _202  and  _205
REMARK   78  A    between atoms: _207  and  _209
REMARK   79  A    between atoms: _209  and  _210
REMARK   80  A    between atoms: _209  and  _212
REMARK   81  A    between atoms: _212  and  _213
REMARK   82  A    between atoms: _217  and  _218
REMARK   83  A    between atoms: _223  and  _225
REMARK   84  A    between atoms: _225  and  _226
REMARK   85  A    between atoms: _225  and  _228
REMARK   86  A    between atoms: _228  and  _229
REMARK   87  A    between atoms: _232  and  _234
REMARK   88  A    between atoms: _234  and  _235
REMARK   89  A    between atoms: _234  and  _237
REMARK   90  A    between atoms: _237  and  _238
REMARK   91  A    between atoms: _238  and  _239
REMARK   92  A    between atoms: _239  and  ZN_312
REMARK   93  A    between atoms: _241  and  _243
REMARK   94  A    between atoms: _243  and  _244
REMARK   95  A    between atoms: _243  and  _246
REMARK   96  A    between atoms: _246  and  _247
REMARK   97  A    between atoms: _249  and  _251
REMARK   98  A    between atoms: _251  and  _252
REMARK   99  A    between atoms: _256  and  _257
REMARK  100  A    between atoms: _262  and  _264
REMARK  101  A    between atoms: _264  and  _265
REMARK  102  A    between atoms: _264  and  _267
REMARK  103  A    between atoms: _267  and  _268
REMARK  104  A    between atoms: _273  and  _275
REMARK  105  A    between atoms: _275  and  _276
REMARK  106  A    between atoms: _275  and  _278
REMARK  107  A    between atoms: _278  and  _279
REMARK  108  A    between atoms: _279  and  _280
REMARK  109  A    between atoms: _280  and  _281
REMARK  110  A    between atoms: _281  and  _282
REMARK  111  A    between atoms: _286  and  _288
REMARK  112  A    between atoms: _288  and  _289
REMARK  113  A    between atoms: _288  and  _291
REMARK  114  A    between atoms: _293  and  _295
REMARK  115  A    between atoms: _295  and  _296
REMARK  116  A    between atoms: _299  and  _301
REMARK  117  A    between atoms: _301  and  _302
REMARK  118  A    between atoms: _304  and  _306
REMARK  119  A    between atoms: _306  and  _307
REMARK  120  A    between atoms: _306  and  _309
REMARK                            x       y       z     vdW  Elec       q    Type
REMARK                         _______ _______ _______ _____ _____    ______ ____
ROOT
ATOM      1  CA  TYR A   1      35.935  41.232  69.289  0.00  0.00    +0.149 C 
ENDROOT
BRANCH   1   2
ATOM      2  C   TYR A   1      36.539  40.432  68.135  0.00  0.00    +0.242 C 
ATOM      3  N   PRO A   2      35.885  39.323  67.759  0.00  0.00    -0.273 N 
ATOM      4  CD  PRO A   2      34.628  38.759  68.295  0.00  0.00    +0.094 C 
ATOM      5  CG  PRO A   2      34.594  37.381  67.683  0.00  0.00    +0.024 C 
ATOM      6  CB  PRO A   2      35.267  37.531  66.410  0.00  0.00    +0.030 C 
ATOM      7  CA  PRO A   2      36.429  38.475  66.713  0.00  0.00    +0.140 C 
ATOM      8  O   TYR A   1      37.590  40.805  67.591  0.00  0.00    -0.273 OA
BRANCH   7   9
ATOM      9  C   PRO A   2      36.874  39.229  65.457  0.00  0.00    +0.227 C 
ATOM     10  O   PRO A   2      36.212  40.175  65.017  0.00  0.00    -0.286 OA
ENDBRANCH   7   9
ENDBRANCH   1   2
BRANCH   1  11
ATOM     11  N   TYR A   1      36.950  42.056  69.939  0.00  0.00    -0.238 NA
ATOM     12  H   TYR A   1      37.104  43.026  69.597  0.00  0.00    +0.142 HD
ENDBRANCH   1  11
BRANCH   1  13
ATOM     13  CB  TYR A   1      34.800  42.116  68.792  0.00  0.00    +0.053 C 
BRANCH  13  14
ATOM     14  CG  TYR A   1      33.917  42.614  69.918  0.00  0.00    -0.020 A 
ATOM     15  CD2 TYR A   1      32.931  41.803  70.462  0.00  0.00    -0.001 A 
ATOM     16  CE2 TYR A   1      32.100  42.257  71.479  0.00  0.00    +0.036 A 
ATOM     17  CZ  TYR A   1      32.277  43.536  71.988  0.00  0.00    +0.134 A 
ATOM     18  CE1 TYR A   1      33.257  44.353  71.474  0.00  0.00    +0.036 A 
ATOM     19  CD1 TYR A   1      34.072  43.892  70.438  0.00  0.00    -0.001 A 
BRANCH  17  20
ATOM     20  OH  TYR A   1      31.479  43.971  73.017  0.00  0.00    -0.506 OA
ATOM     21  HH  TYR A   1      31.600  43.378  73.800  0.00  0.00    +0.292 HD
ENDBRANCH  17  20
ENDBRANCH  13  14
ENDBRANCH   1  13
TORSDOF 6
REMARK  Name = ../refined-set-2016/1xge/1xge_pocket.pdb
REMARK  120 active torsions:
REMARK  status: ('A' for Active; 'I' for Inactive)
REMARK    1  A    between atoms: _1  and  _3
REMARK    2  A    between atoms: _14  and  _17
REMARK    3  A    between atoms: _17  and  _18
REMARK    4  A    between atoms: _23  and  _24
REMARK    5  A    between atoms: _32  and  _34
REMARK    6  A    between atoms: _34  and  _35
REMARK    7  A    between atoms: _34  and  _37
REMARK    8  A    between atoms: _37  and  _38
REMARK    9  A    between atoms: _41  and  _43
REMARK   10  A    between atoms: _43  and  _44
REMARK   11  A    between atoms: _43  and  _46
REMARK   12  A    between atoms: _46  and  _47
REMARK   13  A    between atoms: _47  and  _48
REMARK   14  A    between atoms: _48  and  _49
REMARK   15  A    between atoms: _58  and  _60
REMARK   16  A    between atoms: _60  and  _61
REMARK   17  A    between atoms: _60  and  _63
REMARK   18  A    between atoms: _63  and  _64
REMARK   19  A    between atoms: _64  and  _65
REMARK   20  A    between atoms: _67  and  _69
REMARK   21  A    between atoms: _69  and  _70
REMARK   22  A    between atoms: _69  and  _72
REMARK   23  A    between atoms: _72  and  _73
REMARK   24  A    between atoms: _78  and  _80
REMARK   25  A    between atoms: _80  and  _81
REMARK   26  A    between atoms: _80  and  _83
REMARK   27  A    between atoms: _83  and  _84
REMARK   28  A    between atoms: _87  and  _89
REMARK   29  A    between atoms: _89  and  _90
REMARK   30  A    between atoms: _89  and  _96
REMARK   31  A    between atoms: _90  and  _91
REMARK   32  A    between atoms: _91  and  _92
REMARK   33  A    between atoms: _92  and  _93
REMARK   34  A    between atoms: _93  and  _94
REMARK   35  A    between atoms: _94  and  _98
REMARK   36  A    between atoms: _101  and  _103
REMARK   37  A    between atoms: _103  and  _104
REMARK   38  A    between atoms: _103  and  _106
REMARK   39  A    between atoms: _106  and  _107
REMARK   40  A    between atoms: _112  and  _113
REMARK   41  A    between atoms: _116  and  _117
REMARK   42  A    between atoms: _122  and  _124
REMARK   43  A    between atoms: _124  and  _125
REMARK   44  A    between atoms: _124  and  _127
REMARK   45  A    between atoms: _127  and  _128
REMARK   46  A    between atoms: _129  and  ZN_311
REMARK   47  A    between atoms: _133  and  _135
REMARK   48  A    between atoms: _135  and  _136
REMARK   49  A    between atoms: _135  and  _138
REMARK   50  A    between atoms: _138  and  _139
REMARK   51  A    between atoms: _139  and  _140
REMARK   52  A    between atoms: _143  and  _145
REMARK   53  A    between atoms: _145  and  _146
REMARK   54  A    between atoms: _145  and  _148
REMARK   55  A    between atoms: _148  and  _149
REMARK   56  A    between atoms: _153  and  ZN_311
REMARK   57  A    between atoms: _154  and  _156
REMARK   58  A    between atoms: _156  and  _157
REMARK   59  A    between atoms: _156  and  _159
REMARK   60  A    between atoms: _159  and  _160
REMARK   61  A    between atoms: _160  and  _161
REMARK   62  A    between atoms: _166  and  _168
REMARK   63  A    between atoms: _168  and  _169
REMARK   64  A    between atoms: _168  and  _171
REMARK   65  A    between atoms: _171  and  _172
REMARK   66  A    between atoms: _177  and  _179
REMARK   67  A    between atoms: _179  and  _180
REMARK   68  A    between atoms: _179  and  _182
REMARK   69  A    between atoms: _182  and  _183
REMARK   70  A    between atoms: _186  and  _188
REMARK   71  A    between atoms: _188  and  _189
REMARK   72  A    between atoms: _188  and  _191
REMARK   73  A    between atoms: _191  and  _192
REMARK   74  A    between atoms: _197  and  _198
REMARK   75  A    between atoms: _200  and  _202
REMARK   76  A    between atoms: _202  and  _203
REMARK   77  A    between atoms: _202  and  _205
REMARK   78  A    between atoms: _207  and  _209
REMARK   79  A    between atoms: _209  and  _210
REMARK   80  A    between atoms: _209  and  _212
REMARK   81  A    between atoms: _212  and  _213
REMARK   82  A    between atoms: _217  and  _218
REMARK   83  A    between atoms: _223  and  _225
REMARK   84  A    between atoms: _225  and  _226
REMARK   85  A    between atoms: _225  and  _228
REMARK   86  A    between atoms: _228  and  _229
REMARK   87  A    between atoms: _232  and  _234
REMARK   88  A    between atoms: _234  and  _235
REMARK   89  A    between atoms: _234  and  _237
REMARK   90  A    between atoms: _237  and  _238
REMARK   91  A    between atoms: _238  and  _239
REMARK   92  A    between atoms: _239  and  ZN_312
REMARK   93  A    between atoms: _241  and  _243
REMARK   94  A    between atoms: _243  and  _244
REMARK   95  A    between atoms: _243  and  _246
REMARK   96  A    between atoms: _246  and  _247
REMARK   97  A    between atoms: _249  and  _251
REMARK   98  A    between atoms: _251  and  _252
REMARK   99  A    between atoms: _256  and  _257
REMARK  100  A    between atoms: _262  and  _264
REMARK  101  A    between atoms: _264  and  _265
REMARK  102  A    between atoms: _264  and  _267
REMARK  103  A    between atoms: _267  and  _268
REMARK  104  A    between atoms: _273  and  _275
REMARK  105  A    between atoms: _275  and  _276
REMARK  106  A    between atoms: _275  and  _278
REMARK  107  A    between atoms: _278  and  _279
REMARK  108  A    between atoms: _279  and  _280
REMARK  109  A    between atoms: _280  and  _281
REMARK  110  A    between atoms: _281  and  _282
REMARK  111  A    between atoms: _286  and  _288
REMARK  112  A    between atoms: _288  and  _289
REMARK  113  A    between atoms: _288  and  _291
REMARK  114  A    between atoms: _293  and  _295
REMARK  115  A    between atoms: _295  and  _296
REMARK  116  A    between atoms: _299  and  _301
REMARK  117  A    between atoms: _301  and  _302
REMARK  118  A    between atoms: _304  and  _306
REMARK  119  A    between atoms: _306  and  _307
REMARK  120  A    between atoms: _306  and  _309
REMARK                            x       y       z     vdW  Elec       q    Type
REMARK                         _______ _______ _______ _____ _____    ______ ____
ROOT
ATOM      1  CA  GLU A   1      35.702  33.094  68.782  0.00  0.00    +0.134 C 
ENDROOT
BRANCH   1   2
ATOM      2  N   GLU A   1      36.227  33.918  69.860  0.00  0.00    -0.239 NA
ATOM      3  H   GLU A   1      36.332  34.939  69.695  0.00  0.00    +0.142 HD
ENDBRANCH   1   2
BRANCH   1   4
ATOM      4  C   GLU A   1      36.376  33.497  67.483  0.00  0.00    +0.224 C 
ATOM      5  O   GLU A   1      36.686  34.670  67.279  0.00  0.00    -0.287 OA
ENDBRANCH   1   4
BRANCH   1   6
ATOM      6  CB  GLU A   1      34.189  33.256  68.653  0.00  0.00    +0.037 C 
BRANCH   6   7
ATOM      7  CG  GLU A   1      33.443  32.668  69.812  0.00  0.00    +0.116 C 
BRANCH   7   8
ATOM      8  CD  GLU A   1      31.952  32.605  69.562  0.00  0.00    +0.365 C 
ATOM      9  OE2 GLU A   1      31.317  33.676  69.519  0.00  0.00    -0.246 OA
ATOM     10  OE1 GLU A   1      31.417  31.490  69.389  0.00  0.00    -0.246 OA
ENDBRANCH   7   8
ENDBRANCH   6   7
ENDBRANCH   1   6
TORSDOF 5
REMARK  Name = ../refined-set-2016/1xge/1xge_pocket.pdb
REMARK  120 active torsions:
REMARK  status: ('A' for Active; 'I' for Inactive)
REMARK    1  A    between atoms: _1  and  _3
REMARK    2  A    between atoms: _14  and  _17
REMARK    3  A    between atoms: _17  and  _18
REMARK    4  A    between atoms: _23  and  _24
REMARK    5  A    between atoms: _32  and  _34
REMARK    6  A    between atoms: _34  and  _35
REMARK    7  A    between atoms: _34  and  _37
REMARK    8  A    between atoms: _37  and  _38
REMARK    9  A    between atoms: _41  and  _43
REMARK   10  A    between atoms: _43  and  _44
REMARK   11  A    between atoms: _43  and  _46
REMARK   12  A    between atoms: _46  and  _47
REMARK   13  A    between atoms: _47  and  _48
REMARK   14  A    between atoms: _48  and  _49
REMARK   15  A    between atoms: _58  and  _60
REMARK   16  A    between atoms: _60  and  _61
REMARK   17  A    between atoms: _60  and  _63
REMARK   18  A    between atoms: _63  and  _64
REMARK   19  A    between atoms: _64  and  _65
REMARK   20  A    between atoms: _67  and  _69
REMARK   21  A    between atoms: _69  and  _70
REMARK   22  A    between atoms: _69  and  _72
REMARK   23  A    between atoms: _72  and  _73
REMARK   24  A    between atoms: _78  and  _80
REMARK   25  A    between atoms: _80  and  _81
REMARK   26  A    between atoms: _80  and  _83
REMARK   27  A    between atoms: _83  and  _84
REMARK   28  A    between atoms: _87  and  _89
REMARK   29  A    between atoms: _89  and  _90
REMARK   30  A    between atoms: _89  and  _96
REMARK   31  A    between atoms: _90  and  _91
REMARK   32  A    between atoms: _91  and  _92
REMARK   33  A    between atoms: _92  and  _93
REMARK   34  A    between atoms: _93  and  _94
REMARK   35  A    between atoms: _94  and  _98
REMARK   36  A    between atoms: _101  and  _103
REMARK   37  A    between atoms: _103  and  _104
REMARK   38  A    between atoms: _103  and  _106
REMARK   39  A    between atoms: _106  and  _107
REMARK   40  A    between atoms: _112  and  _113
REMARK   41  A    between atoms: _116  and  _117
REMARK   42  A    between atoms: _122  and  _124
REMARK   43  A    between atoms: _124  and  _125
REMARK   44  A    between atoms: _124  and  _127
REMARK   45  A    between atoms: _127  and  _128
REMARK   46  A    between atoms: _129  and  ZN_311
REMARK   47  A    between atoms: _133  and  _135
REMARK   48  A    between atoms: _135  and  _136
REMARK   49  A    between atoms: _135  and  _138
REMARK   50  A    between atoms: _138  and  _139
REMARK   51  A    between atoms: _139  and  _140
REMARK   52  A    between atoms: _143  and  _145
REMARK   53  A    between atoms: _145  and  _146
REMARK   54  A    between atoms: _145  and  _148
REMARK   55  A    between atoms: _148  and  _149
REMARK   56  A    between atoms: _153  and  ZN_311
REMARK   57  A    between atoms: _154  and  _156
REMARK   58  A    between atoms: _156  and  _157
REMARK   59  A    between atoms: _156  and  _159
REMARK   60  A    between atoms: _159  and  _160
REMARK   61  A    between atoms: _160  and  _161
REMARK   62  A    between atoms: _166  and  _168
REMARK   63  A    between atoms: _168  and  _169
REMARK   64  A    between atoms: _168  and  _171
REMARK   65  A    between atoms: _171  and  _172
REMARK   66  A    between atoms: _177  and  _179
REMARK   67  A    between atoms: _179  and  _180
REMARK   68  A    between atoms: _179  and  _182
REMARK   69  A    between atoms: _182  and  _183
REMARK   70  A    between atoms: _186  and  _188
REMARK   71  A    between atoms: _188  and  _189
REMARK   72  A    between atoms: _188  and  _191
REMARK   73  A    between atoms: _191  and  _192
REMARK   74  A    between atoms: _197  and  _198
REMARK   75  A    between atoms: _200  and  _202
REMARK   76  A    between atoms: _202  and  _203
REMARK   77  A    between atoms: _202  and  _205
REMARK   78  A    between atoms: _207  and  _209
REMARK   79  A    between atoms: _209  and  _210
REMARK   80  A    between atoms: _209  and  _212
REMARK   81  A    between atoms: _212  and  _213
REMARK   82  A    between atoms: _217  and  _218
REMARK   83  A    between atoms: _223  and  _225
REMARK   84  A    between atoms: _225  and  _226
REMARK   85  A    between atoms: _225  and  _228
REMARK   86  A    between atoms: _228  and  _229
REMARK   87  A    between atoms: _232  and  _234
REMARK   88  A    between atoms: _234  and  _235
REMARK   89  A    between atoms: _234  and  _237
REMARK   90  A    between atoms: _237  and  _238
REMARK   91  A    between atoms: _238  and  _239
REMARK   92  A    between atoms: _239  and  ZN_312
REMARK   93  A    between atoms: _241  and  _243
REMARK   94  A    between atoms: _243  and  _244
REMARK   95  A    between atoms: _243  and  _246
REMARK   96  A    between atoms: _246  and  _247
REMARK   97  A    between atoms: _249  and  _251
REMARK   98  A    between atoms: _251  and  _252
REMARK   99  A    between atoms: _256  and  _257
REMARK  100  A    between atoms: _262  and  _264
REMARK  101  A    between atoms: _264  and  _265
REMARK  102  A    between atoms: _264  and  _267
REMARK  103  A    between atoms: _267  and  _268
REMARK  104  A    between atoms: _273  and  _275
REMARK  105  A    between atoms: _275  and  _276
REMARK  106  A    between atoms: _275  and  _278
REMARK  107  A    between atoms: _278  and  _279
REMARK  108  A    between atoms: _279  and  _280
REMARK  109  A    between atoms: _280  and  _281
REMARK  110  A    between atoms: _281  and  _282
REMARK  111  A    between atoms: _286  and  _288
REMARK  112  A    between atoms: _288  and  _289
REMARK  113  A    between atoms: _288  and  _291
REMARK  114  A    between atoms: _293  and  _295
REMARK  115  A    between atoms: _295  and  _296
REMARK  116  A    between atoms: _299  and  _301
REMARK  117  A    between atoms: _301  and  _302
REMARK  118  A    between atoms: _304  and  _306
REMARK  119  A    between atoms: _306  and  _307
REMARK  120  A    between atoms: _306  and  _309
REMARK                            x       y       z     vdW  Elec       q    Type
REMARK                         _______ _______ _______ _____ _____    ______ ____
ROOT
ATOM      1  C   GLN A   1      23.738  29.986  80.735  0.00  0.00    +0.238 C 
ATOM      2  N   HIS A   2      25.044  30.232  80.639  0.00  0.00    -0.298 N 
ATOM      3  H   HIS A   2      25.405  31.194  80.803  0.00  0.00    +0.150 HD
ATOM      4  O   GLN A   1      23.270  28.868  80.591  0.00  0.00    -0.274 OA
ENDROOT
BRANCH   1   5
ATOM      5  CA  GLN A   1      22.835  31.160  81.079  0.00  0.00    +0.145 C 
BRANCH   5   6
ATOM      6  N   GLN A   1      23.465  32.080  82.040  0.00  0.00    -0.238 NA
ATOM      7  H   GLN A   1      23.690  33.055  81.755  0.00  0.00    +0.142 HD
ENDBRANCH   5   6
BRANCH   5   8
ATOM      8  CB  GLN A   1      22.356  31.888  79.808  0.00  0.00    +0.036 C 
BRANCH   8   9
ATOM      9  CG  GLN A   1      23.408  32.588  78.957  0.00  0.00    +0.087 C 
BRANCH   9  10
ATOM     10  CD  GLN A   1      23.638  34.037  79.323  0.00  0.00    +0.219 C 
ATOM     11  OE1 GLN A   1      23.363  34.452  80.443  0.00  0.00    -0.275 OA
ATOM     12  NE2 GLN A   1      24.176  34.819  78.373  0.00  0.00    -0.329 N 
ATOM     13 HE21 GLN A   1      24.375  35.820  78.574  0.00  0.00    +0.145 HD
ATOM     14 HE22 GLN A   1      24.393  34.424  77.436  0.00  0.00    +0.145 HD
ENDBRANCH   9  10
ENDBRANCH   8   9
ENDBRANCH   5   8
ENDBRANCH   1   5
BRANCH   2  15
ATOM     15  CA  HIS A   2      25.972  29.151  80.303  0.00  0.00    +0.143 C 
BRANCH  15  16
ATOM     16  C   HIS A   2      26.212  28.152  81.466  0.00  0.00    +0.227 C 
ATOM     17  O   HIS A   2      26.668  27.034  81.245  0.00  0.00    -0.286 OA
ENDBRANCH  15  16
BRANCH  15  18
ATOM     18  CB  HIS A   2      27.277  29.732  79.761  0.00  0.00    +0.075 C 
BRANCH  18  19
ATOM     19  CG  HIS A   2      27.118  30.399  78.427  0.00  0.00    +0.082 A 
ATOM     20  ND1 HIS A   2      27.171  31.766  78.263  0.00  0.00    -0.227 NA
ATOM     21  CE1 HIS A   2      27.003  32.058  76.982  0.00  0.00    +0.199 A 
ATOM     22  NE2 HIS A   2      26.840  30.930  76.310  0.00  0.00    -0.221 NA
ATOM     23  CD2 HIS A   2      26.898  29.879  77.192  0.00  0.00    +0.115 A 
ENDBRANCH  18  19
ENDBRANCH  15  18
ENDBRANCH   2  15
TORSDOF 9
REMARK  Name = ../refined-set-2016/1xge/1xge_pocket.pdb
REMARK  120 active torsions:
REMARK  status: ('A' for Active; 'I' for Inactive)
REMARK    1  A    between atoms: _1  and  _3
REMARK    2  A    between atoms: _14  and  _17
REMARK    3  A    between atoms: _17  and  _18
REMARK    4  A    between atoms: _23  and  _24
REMARK    5  A    between atoms: _32  and  _34
REMARK    6  A    between atoms: _34  and  _35
REMARK    7  A    between atoms: _34  and  _37
REMARK    8  A    between atoms: _37  and  _38
REMARK    9  A    between atoms: _41  and  _43
REMARK   10  A    between atoms: _43  and  _44
REMARK   11  A    between atoms: _43  and  _46
REMARK   12  A    between atoms: _46  and  _47
REMARK   13  A    between atoms: _47  and  _48
REMARK   14  A    between atoms: _48  and  _49
REMARK   15  A    between atoms: _58  and  _60
REMARK   16  A    between atoms: _60  and  _61
REMARK   17  A    between atoms: _60  and  _63
REMARK   18  A    between atoms: _63  and  _64
REMARK   19  A    between atoms: _64  and  _65
REMARK   20  A    between atoms: _67  and  _69
REMARK   21  A    between atoms: _69  and  _70
REMARK   22  A    between atoms: _69  and  _72
REMARK   23  A    between atoms: _72  and  _73
REMARK   24  A    between atoms: _78  and  _80
REMARK   25  A    between atoms: _80  and  _81
REMARK   26  A    between atoms: _80  and  _83
REMARK   27  A    between atoms: _83  and  _84
REMARK   28  A    between atoms: _87  and  _89
REMARK   29  A    between atoms: _89  and  _90
REMARK   30  A    between atoms: _89  and  _96
REMARK   31  A    between atoms: _90  and  _91
REMARK   32  A    between atoms: _91  and  _92
REMARK   33  A    between atoms: _92  and  _93
REMARK   34  A    between atoms: _93  and  _94
REMARK   35  A    between atoms: _94  and  _98
REMARK   36  A    between atoms: _101  and  _103
REMARK   37  A    between atoms: _103  and  _104
REMARK   38  A    between atoms: _103  and  _106
REMARK   39  A    between atoms: _106  and  _107
REMARK   40  A    between atoms: _112  and  _113
REMARK   41  A    between atoms: _116  and  _117
REMARK   42  A    between atoms: _122  and  _124
REMARK   43  A    between atoms: _124  and  _125
REMARK   44  A    between atoms: _124  and  _127
REMARK   45  A    between atoms: _127  and  _128
REMARK   46  A    between atoms: _129  and  ZN_311
REMARK   47  A    between atoms: _133  and  _135
REMARK   48  A    between atoms: _135  and  _136
REMARK   49  A    between atoms: _135  and  _138
REMARK   50  A    between atoms: _138  and  _139
REMARK   51  A    between atoms: _139  and  _140
REMARK   52  A    between atoms: _143  and  _145
REMARK   53  A    between atoms: _145  and  _146
REMARK   54  A    between atoms: _145  and  _148
REMARK   55  A    between atoms: _148  and  _149
REMARK   56  A    between atoms: _153  and  ZN_311
REMARK   57  A    between atoms: _154  and  _156
REMARK   58  A    between atoms: _156  and  _157
REMARK   59  A    between atoms: _156  and  _159
REMARK   60  A    between atoms: _159  and  _160
REMARK   61  A    between atoms: _160  and  _161
REMARK   62  A    between atoms: _166  and  _168
REMARK   63  A    between atoms: _168  and  _169
REMARK   64  A    between atoms: _168  and  _171
REMARK   65  A    between atoms: _171  and  _172
REMARK   66  A    between atoms: _177  and  _179
REMARK   67  A    between atoms: _179  and  _180
REMARK   68  A    between atoms: _179  and  _182
REMARK   69  A    between atoms: _182  and  _183
REMARK   70  A    between atoms: _186  and  _188
REMARK   71  A    between atoms: _188  and  _189
REMARK   72  A    between atoms: _188  and  _191
REMARK   73  A    between atoms: _191  and  _192
REMARK   74  A    between atoms: _197  and  _198
REMARK   75  A    between atoms: _200  and  _202
REMARK   76  A    between atoms: _202  and  _203
REMARK   77  A    between atoms: _202  and  _205
REMARK   78  A    between atoms: _207  and  _209
REMARK   79  A    between atoms: _209  and  _210
REMARK   80  A    between atoms: _209  and  _212
REMARK   81  A    between atoms: _212  and  _213
REMARK   82  A    between atoms: _217  and  _218
REMARK   83  A    between atoms: _223  and  _225
REMARK   84  A    between atoms: _225  and  _226
REMARK   85  A    between atoms: _225  and  _228
REMARK   86  A    between atoms: _228  and  _229
REMARK   87  A    between atoms: _232  and  _234
REMARK   88  A    between atoms: _234  and  _235
REMARK   89  A    between atoms: _234  and  _237
REMARK   90  A    between atoms: _237  and  _238
REMARK   91  A    between atoms: _238  and  _239
REMARK   92  A    between atoms: _239  and  ZN_312
REMARK   93  A    between atoms: _241  and  _243
REMARK   94  A    between atoms: _243  and  _244
REMARK   95  A    between atoms: _243  and  _246
REMARK   96  A    between atoms: _246  and  _247
REMARK   97  A    between atoms: _249  and  _251
REMARK   98  A    between atoms: _251  and  _252
REMARK   99  A    between atoms: _256  and  _257
REMARK  100  A    between atoms: _262  and  _264
REMARK  101  A    between atoms: _264  and  _265
REMARK  102  A    between atoms: _264  and  _267
REMARK  103  A    between atoms: _267  and  _268
REMARK  104  A    between atoms: _273  and  _275
REMARK  105  A    between atoms: _275  and  _276
REMARK  106  A    between atoms: _275  and  _278
REMARK  107  A    between atoms: _278  and  _279
REMARK  108  A    between atoms: _279  and  _280
REMARK  109  A    between atoms: _280  and  _281
REMARK  110  A    between atoms: _281  and  _282
REMARK  111  A    between atoms: _286  and  _288
REMARK  112  A    between atoms: _288  and  _289
REMARK  113  A    between atoms: _288  and  _291
REMARK  114  A    between atoms: _293  and  _295
REMARK  115  A    between atoms: _295  and  _296
REMARK  116  A    between atoms: _299  and  _301
REMARK  117  A    between atoms: _301  and  _302
REMARK  118  A    between atoms: _304  and  _306
REMARK  119  A    between atoms: _306  and  _307
REMARK  120  A    between atoms: _306  and  _309
REMARK                            x       y       z     vdW  Elec       q    Type
REMARK                         _______ _______ _______ _____ _____    ______ ____
ROOT
ATOM      1  CA  CYS A   3      23.411  34.444  72.559  0.00  0.00    +0.160 C 
ENDROOT
BRANCH   1   4
ATOM      2  C   TYR A   2      21.090  33.794  72.117  0.00  0.00    +0.241 C 
ATOM      3  O   TYR A   2      20.658  34.942  72.276  0.00  0.00    -0.273 OA
ATOM      4  N   CYS A   3      22.375  33.471  72.234  0.00  0.00    -0.296 N 
ATOM      5  H   CYS A   3      22.653  32.480  72.087  0.00  0.00    +0.150 HD
BRANCH   2   6
ATOM      6  CA  TYR A   2      20.163  32.633  71.773  0.00  0.00    +0.153 C 
BRANCH   6   9
ATOM      7  C   LEU A   1      19.464  31.789  73.962  0.00  0.00    +0.238 C 
ATOM      8  O   LEU A   1      20.551  31.233  74.155  0.00  0.00    -0.274 OA
ATOM      9  N   TYR A   2      19.173  32.445  72.835  0.00  0.00    -0.297 N 
ATOM     10  H   TYR A   2      18.216  32.833  72.709  0.00  0.00    +0.150 HD
BRANCH   7  11
ATOM     11  CA  LEU A   1      18.373  31.750  75.047  0.00  0.00    +0.145 C 
BRANCH  11  12
ATOM     12  N   LEU A   1      17.154  32.472  74.659  0.00  0.00    -0.238 NA
ATOM     13  H   LEU A   1      16.471  32.006  74.029  0.00  0.00    +0.142 HD
ENDBRANCH  11  12
BRANCH  11  14
ATOM     14  CB  LEU A   1      18.059  30.300  75.380  0.00  0.00    +0.026 C 
BRANCH  14  15
ATOM     15  CG  LEU A   1      17.307  30.047  76.691  0.00  0.00    +0.002 C 
ATOM     16  CD2 LEU A   1      18.087  30.634  77.859  0.00  0.00    +0.000 C 
ATOM     17  CD1 LEU A   1      17.097  28.558  76.872  0.00  0.00    +0.000 C 
ENDBRANCH  14  15
ENDBRANCH  11  14
ENDBRANCH   7  11
ENDBRANCH   6   9
BRANCH   6  18
ATOM     18  CB  TYR A   2      19.487  32.866  70.422  0.00  0.00    +0.055 C 
BRANCH  18  19
ATOM     19  CG  TYR A   2      20.460  33.144  69.292  0.00  0.00    -0.020 A 
ATOM     20  CD2 TYR A   2      21.327  32.149  68.819  0.00  0.00    -0.001 A 
ATOM     21  CE2 TYR A   2      22.211  32.414  67.764  0.00  0.00    +0.036 A 
ATOM     22  CZ  TYR A   2      22.231  33.684  67.189  0.00  0.00    +0.134 A 
ATOM     23  CE1 TYR A   2      21.373  34.666  67.652  0.00  0.00    +0.036 A 
ATOM     24  CD1 TYR A   2      20.506  34.395  68.690  0.00  0.00    -0.001 A 
BRANCH  22  25
ATOM     25  OH  TYR A   2      23.096  33.998  66.153  0.00  0.00    -0.506 OA
ATOM     26  HH  TYR A   2      23.644  33.204  65.930  0.00  0.00    +0.292 HD
ENDBRANCH  22  25
ENDBRANCH  18  19
ENDBRANCH   6  18
ENDBRANCH   2   6
ENDBRANCH   1   4
BRANCH   1  27
ATOM     27  C   CYS A   3      24.745  33.921  71.980  0.00  0.00    +0.242 C 
ATOM     28  N   LEU A   4      25.755  34.781  71.938  0.00  0.00    -0.297 N 
ATOM     29  H   LEU A   4      25.580  35.778  72.175  0.00  0.00    +0.150 HD
ATOM     30  O   CYS A   3      24.831  32.767  71.532  0.00  0.00    -0.273 OA
BRANCH  28  31
ATOM     31  CA  LEU A   4      27.099  34.367  71.570  0.00  0.00    +0.149 C 
BRANCH  31  32
ATOM     32  C   LEU A   4      28.001  34.498  72.797  0.00  0.00    +0.244 C 
ATOM     33  O   LEU A   4      27.776  35.368  73.641  0.00  0.00    -0.273 OA
ATOM     34  N   PRO A   5      28.964  33.580  72.958  0.00  0.00    -0.272 N 
ATOM     35  CD  PRO A   5      30.004  33.735  73.988  0.00  0.00    +0.094 C 
ATOM     36  CG  PRO A   5      31.115  32.886  73.490  0.00  0.00    +0.024 C 
ATOM     37  CB  PRO A   5      30.391  31.733  72.779  0.00  0.00    +0.031 C 
ATOM     38  CA  PRO A   5      29.118  32.349  72.205  0.00  0.00    +0.152 C 
BRANCH  38  39
ATOM     39  C   PRO A   5      27.908  31.433  72.440  0.00  0.00    +0.241 C 
ATOM     40  O   PRO A   5      27.304  31.456  73.506  0.00  0.00    -0.273 OA
ATOM     41  N   ILE A   6      27.557  30.662  71.428  0.00  0.00    -0.298 N 
ATOM     42  H   ILE A   6      28.160  30.647  70.581  0.00  0.00    +0.150 HD
BRANCH  41  43
ATOM     43  CA  ILE A   6      26.370  29.837  71.447  0.00  0.00    +0.137 C 
BRANCH  43  44
ATOM     44  CB  ILE A   6      26.197  29.131  70.073  0.00  0.00    +0.026 C 
ATOM     45  CG2 ILE A   6      27.219  28.014  69.865  0.00  0.00    +0.002 C 
BRANCH  44  46
ATOM     46  CG1 ILE A   6      24.765  28.631  69.883  0.00  0.00    +0.002 C 
ATOM     47  CD1 ILE A   6      23.880  29.650  69.253  0.00  0.00    +0.000 C 
ENDBRANCH  44  46
ENDBRANCH  43  44
BRANCH  43  48
ATOM     48  C   ILE A   6      26.406  28.816  72.578  0.00  0.00    +0.227 C 
ATOM     49  O   ILE A   6      27.475  28.297  72.911  0.00  0.00    -0.286 OA
ENDBRANCH  43  48
ENDBRANCH  41  43
ENDBRANCH  38  39
ENDBRANCH  31  32
BRANCH  31  50
ATOM     50  CB  LEU A   4      27.646  35.208  70.420  0.00  0.00    +0.029 C 
BRANCH  50  51
ATOM     51  CG  LEU A   4      26.824  35.244  69.136  0.00  0.00    +0.002 C 
ATOM     52  CD2 LEU A   4      26.579  33.860  68.574  0.00  0.00    +0.000 C 
ATOM     53  CD1 LEU A   4      27.523  36.128  68.104  0.00  0.00    +0.000 C 
ENDBRANCH  50  51
ENDBRANCH  31  50
ENDBRANCH  28  31
ENDBRANCH   1  27
BRANCH   1  54
ATOM     54  CB  CYS A   3      23.503  34.622  74.083  0.00  0.00    +0.098 C 
ATOM     55  SG  CYS A   3      24.039  33.138  74.945  0.00  0.00    -0.080 S 
ENDBRANCH   1  54
TORSDOF 21
REMARK  Name = ../refined-set-2016/1xge/1xge_pocket.pdb
REMARK  120 active torsions:
REMARK  status: ('A' for Active; 'I' for Inactive)
REMARK    1  A    between atoms: _1  and  _3
REMARK    2  A    between atoms: _14  and  _17
REMARK    3  A    between atoms: _17  and  _18
REMARK    4  A    between atoms: _23  and  _24
REMARK    5  A    between atoms: _32  and  _34
REMARK    6  A    between atoms: _34  and  _35
REMARK    7  A    between atoms: _34  and  _37
REMARK    8  A    between atoms: _37  and  _38
REMARK    9  A    between atoms: _41  and  _43
REMARK   10  A    between atoms: _43  and  _44
REMARK   11  A    between atoms: _43  and  _46
REMARK   12  A    between atoms: _46  and  _47
REMARK   13  A    between atoms: _47  and  _48
REMARK   14  A    between atoms: _48  and  _49
REMARK   15  A    between atoms: _58  and  _60
REMARK   16  A    between atoms: _60  and  _61
REMARK   17  A    between atoms: _60  and  _63
REMARK   18  A    between atoms: _63  and  _64
REMARK   19  A    between atoms: _64  and  _65
REMARK   20  A    between atoms: _67  and  _69
REMARK   21  A    between atoms: _69  and  _70
REMARK   22  A    between atoms: _69  and  _72
REMARK   23  A    between atoms: _72  and  _73
REMARK   24  A    between atoms: _78  and  _80
REMARK   25  A    between atoms: _80  and  _81
REMARK   26  A    between atoms: _80  and  _83
REMARK   27  A    between atoms: _83  and  _84
REMARK   28  A    between atoms: _87  and  _89
REMARK   29  A    between atoms: _89  and  _90
REMARK   30  A    between atoms: _89  and  _96
REMARK   31  A    between atoms: _90  and  _91
REMARK   32  A    between atoms: _91  and  _92
REMARK   33  A    between atoms: _92  and  _93
REMARK   34  A    between atoms: _93  and  _94
REMARK   35  A    between atoms: _94  and  _98
REMARK   36  A    between atoms: _101  and  _103
REMARK   37  A    between atoms: _103  and  _104
REMARK   38  A    between atoms: _103  and  _106
REMARK   39  A    between atoms: _106  and  _107
REMARK   40  A    between atoms: _112  and  _113
REMARK   41  A    between atoms: _116  and  _117
REMARK   42  A    between atoms: _122  and  _124
REMARK   43  A    between atoms: _124  and  _125
REMARK   44  A    between atoms: _124  and  _127
REMARK   45  A    between atoms: _127  and  _128
REMARK   46  A    between atoms: _129  and  ZN_311
REMARK   47  A    between atoms: _133  and  _135
REMARK   48  A    between atoms: _135  and  _136
REMARK   49  A    between atoms: _135  and  _138
REMARK   50  A    between atoms: _138  and  _139
REMARK   51  A    between atoms: _139  and  _140
REMARK   52  A    between atoms: _143  and  _145
REMARK   53  A    between atoms: _145  and  _146
REMARK   54  A    between atoms: _145  and  _148
REMARK   55  A    between atoms: _148  and  _149
REMARK   56  A    between atoms: _153  and  ZN_311
REMARK   57  A    between atoms: _154  and  _156
REMARK   58  A    between atoms: _156  and  _157
REMARK   59  A    between atoms: _156  and  _159
REMARK   60  A    between atoms: _159  and  _160
REMARK   61  A    between atoms: _160  and  _161
REMARK   62  A    between atoms: _166  and  _168
REMARK   63  A    between atoms: _168  and  _169
REMARK   64  A    between atoms: _168  and  _171
REMARK   65  A    between atoms: _171  and  _172
REMARK   66  A    between atoms: _177  and  _179
REMARK   67  A    between atoms: _179  and  _180
REMARK   68  A    between atoms: _179  and  _182
REMARK   69  A    between atoms: _182  and  _183
REMARK   70  A    between atoms: _186  and  _188
REMARK   71  A    between atoms: _188  and  _189
REMARK   72  A    between atoms: _188  and  _191
REMARK   73  A    between atoms: _191  and  _192
REMARK   74  A    between atoms: _197  and  _198
REMARK   75  A    between atoms: _200  and  _202
REMARK   76  A    between atoms: _202  and  _203
REMARK   77  A    between atoms: _202  and  _205
REMARK   78  A    between atoms: _207  and  _209
REMARK   79  A    between atoms: _209  and  _210
REMARK   80  A    between atoms: _209  and  _212
REMARK   81  A    between atoms: _212  and  _213
REMARK   82  A    between atoms: _217  and  _218
REMARK   83  A    between atoms: _223  and  _225
REMARK   84  A    between atoms: _225  and  _226
REMARK   85  A    between atoms: _225  and  _228
REMARK   86  A    between atoms: _228  and  _229
REMARK   87  A    between atoms: _232  and  _234
REMARK   88  A    between atoms: _234  and  _235
REMARK   89  A    between atoms: _234  and  _237
REMARK   90  A    between atoms: _237  and  _238
REMARK   91  A    between atoms: _238  and  _239
REMARK   92  A    between atoms: _239  and  ZN_312
REMARK   93  A    between atoms: _241  and  _243
REMARK   94  A    between atoms: _243  and  _244
REMARK   95  A    between atoms: _243  and  _246
REMARK   96  A    between atoms: _246  and  _247
REMARK   97  A    between atoms: _249  and  _251
REMARK   98  A    between atoms: _251  and  _252
REMARK   99  A    between atoms: _256  and  _257
REMARK  100  A    between atoms: _262  and  _264
REMARK  101  A    between atoms: _264  and  _265
REMARK  102  A    between atoms: _264  and  _267
REMARK  103  A    between atoms: _267  and  _268
REMARK  104  A    between atoms: _273  and  _275
REMARK  105  A    between atoms: _275  and  _276
REMARK  106  A    between atoms: _275  and  _278
REMARK  107  A    between atoms: _278  and  _279
REMARK  108  A    between atoms: _279  and  _280
REMARK  109  A    between atoms: _280  and  _281
REMARK  110  A    between atoms: _281  and  _282
REMARK  111  A    between atoms: _286  and  _288
REMARK  112  A    between atoms: _288  and  _289
REMARK  113  A    between atoms: _288  and  _291
REMARK  114  A    between atoms: _293  and  _295
REMARK  115  A    between atoms: _295  and  _296
REMARK  116  A    between atoms: _299  and  _301
REMARK  117  A    between atoms: _301  and  _302
REMARK  118  A    between atoms: _304  and  _306
REMARK  119  A    between atoms: _306  and  _307
REMARK  120  A    between atoms: _306  and  _309
REMARK                            x       y       z     vdW  Elec       q    Type
REMARK                         _______ _______ _______ _____ _____    ______ ____
ROOT
ATOM      1  CG  LYS A   1      15.493  39.445  71.817  0.00  0.00    -0.000 C 
ENDROOT
BRANCH   1   2
ATOM      2  CB  LYS A   1      14.492  38.671  70.953  0.00  0.00    +0.025 C 
BRANCH   2   3
ATOM      3  CA  LYS A   1      14.662  38.842  69.438  0.00  0.00    +0.133 C 
BRANCH   3   4
ATOM      4  N   LYS A   1      14.338  40.227  69.027  0.00  0.00    -0.239 NA
ATOM      5  H   LYS A   1      13.668  40.783  69.595  0.00  0.00    +0.142 HD
ENDBRANCH   3   4
BRANCH   3   6
ATOM      6  C   LYS A   1      13.811  37.799  68.719  0.00  0.00    +0.224 C 
ATOM      7  O   LYS A   1      14.301  36.738  68.328  0.00  0.00    -0.287 OA
ENDBRANCH   3   6
ENDBRANCH   2   3
ENDBRANCH   1   2
BRANCH   1   8
ATOM      8  CD  LYS A   1      16.943  38.935  71.689  0.00  0.00    -0.024 C 
BRANCH   8   9
ATOM      9  CE  LYS A   1      17.081  37.462  72.071  0.00  0.00    -0.086 C 
BRANCH   9  10
ATOM     10  NZ  LYS A   1      18.512  37.017  72.133  0.00  0.00    +0.380 N 
ATOM     11  HZ1 LYS A   1      19.019  37.582  72.844  0.00  0.00    -0.089 HD
ATOM     12  HZ2 LYS A   1      18.550  36.011  72.396  0.00  0.00    -0.089 HD
ATOM     13  HZ3 LYS A   1      18.956  37.150  71.202  0.00  0.00    -0.089 HD
ENDBRANCH   9  10
ENDBRANCH   8   9
ENDBRANCH   1   8
TORSDOF 7
REMARK  Name = ../refined-set-2016/1xge/1xge_pocket.pdb
REMARK  120 active torsions:
REMARK  status: ('A' for Active; 'I' for Inactive)
REMARK    1  A    between atoms: _1  and  _3
REMARK    2  A    between atoms: _14  and  _17
REMARK    3  A    between atoms: _17  and  _18
REMARK    4  A    between atoms: _23  and  _24
REMARK    5  A    between atoms: _32  and  _34
REMARK    6  A    between atoms: _34  and  _35
REMARK    7  A    between atoms: _34  and  _37
REMARK    8  A    between atoms: _37  and  _38
REMARK    9  A    between atoms: _41  and  _43
REMARK   10  A    between atoms: _43  and  _44
REMARK   11  A    between atoms: _43  and  _46
REMARK   12  A    between atoms: _46  and  _47
REMARK   13  A    between atoms: _47  and  _48
REMARK   14  A    between atoms: _48  and  _49
REMARK   15  A    between atoms: _58  and  _60
REMARK   16  A    between atoms: _60  and  _61
REMARK   17  A    between atoms: _60  and  _63
REMARK   18  A    between atoms: _63  and  _64
REMARK   19  A    between atoms: _64  and  _65
REMARK   20  A    between atoms: _67  and  _69
REMARK   21  A    between atoms: _69  and  _70
REMARK   22  A    between atoms: _69  and  _72
REMARK   23  A    between atoms: _72  and  _73
REMARK   24  A    between atoms: _78  and  _80
REMARK   25  A    between atoms: _80  and  _81
REMARK   26  A    between atoms: _80  and  _83
REMARK   27  A    between atoms: _83  and  _84
REMARK   28  A    between atoms: _87  and  _89
REMARK   29  A    between atoms: _89  and  _90
REMARK   30  A    between atoms: _89  and  _96
REMARK   31  A    between atoms: _90  and  _91
REMARK   32  A    between atoms: _91  and  _92
REMARK   33  A    between atoms: _92  and  _93
REMARK   34  A    between atoms: _93  and  _94
REMARK   35  A    between atoms: _94  and  _98
REMARK   36  A    between atoms: _101  and  _103
REMARK   37  A    between atoms: _103  and  _104
REMARK   38  A    between atoms: _103  and  _106
REMARK   39  A    between atoms: _106  and  _107
REMARK   40  A    between atoms: _112  and  _113
REMARK   41  A    between atoms: _116  and  _117
REMARK   42  A    between atoms: _122  and  _124
REMARK   43  A    between atoms: _124  and  _125
REMARK   44  A    between atoms: _124  and  _127
REMARK   45  A    between atoms: _127  and  _128
REMARK   46  A    between atoms: _129  and  ZN_311
REMARK   47  A    between atoms: _133  and  _135
REMARK   48  A    between atoms: _135  and  _136
REMARK   49  A    between atoms: _135  and  _138
REMARK   50  A    between atoms: _138  and  _139
REMARK   51  A    between atoms: _139  and  _140
REMARK   52  A    between atoms: _143  and  _145
REMARK   53  A    between atoms: _145  and  _146
REMARK   54  A    between atoms: _145  and  _148
REMARK   55  A    between atoms: _148  and  _149
REMARK   56  A    between atoms: _153  and  ZN_311
REMARK   57  A    between atoms: _154  and  _156
REMARK   58  A    between atoms: _156  and  _157
REMARK   59  A    between atoms: _156  and  _159
REMARK   60  A    between atoms: _159  and  _160
REMARK   61  A    between atoms: _160  and  _161
REMARK   62  A    between atoms: _166  and  _168
REMARK   63  A    between atoms: _168  and  _169
REMARK   64  A    between atoms: _168  and  _171
REMARK   65  A    between atoms: _171  and  _172
REMARK   66  A    between atoms: _177  and  _179
REMARK   67  A    between atoms: _179  and  _180
REMARK   68  A    between atoms: _179  and  _182
REMARK   69  A    between atoms: _182  and  _183
REMARK   70  A    between atoms: _186  and  _188
REMARK   71  A    between atoms: _188  and  _189
REMARK   72  A    between atoms: _188  and  _191
REMARK   73  A    between atoms: _191  and  _192
REMARK   74  A    between atoms: _197  and  _198
REMARK   75  A    between atoms: _200  and  _202
REMARK   76  A    between atoms: _202  and  _203
REMARK   77  A    between atoms: _202  and  _205
REMARK   78  A    between atoms: _207  and  _209
REMARK   79  A    between atoms: _209  and  _210
REMARK   80  A    between atoms: _209  and  _212
REMARK   81  A    between atoms: _212  and  _213
REMARK   82  A    between atoms: _217  and  _218
REMARK   83  A    between atoms: _223  and  _225
REMARK   84  A    between atoms: _225  and  _226
REMARK   85  A    between atoms: _225  and  _228
REMARK   86  A    between atoms: _228  and  _229
REMARK   87  A    between atoms: _232  and  _234
REMARK   88  A    between atoms: _234  and  _235
REMARK   89  A    between atoms: _234  and  _237
REMARK   90  A    between atoms: _237  and  _238
REMARK   91  A    between atoms: _238  and  _239
REMARK   92  A    between atoms: _239  and  ZN_312
REMARK   93  A    between atoms: _241  and  _243
REMARK   94  A    between atoms: _243  and  _244
REMARK   95  A    between atoms: _243  and  _246
REMARK   96  A    between atoms: _246  and  _247
REMARK   97  A    between atoms: _249  and  _251
REMARK   98  A    between atoms: _251  and  _252
REMARK   99  A    between atoms: _256  and  _257
REMARK  100  A    between atoms: _262  and  _264
REMARK  101  A    between atoms: _264  and  _265
REMARK  102  A    between atoms: _264  and  _267
REMARK  103  A    between atoms: _267  and  _268
REMARK  104  A    between atoms: _273  and  _275
REMARK  105  A    between atoms: _275  and  _276
REMARK  106  A    between atoms: _275  and  _278
REMARK  107  A    between atoms: _278  and  _279
REMARK  108  A    between atoms: _279  and  _280
REMARK  109  A    between atoms: _280  and  _281
REMARK  110  A    between atoms: _281  and  _282
REMARK  111  A    between atoms: _286  and  _288
REMARK  112  A    between atoms: _288  and  _289
REMARK  113  A    between atoms: _288  and  _291
REMARK  114  A    between atoms: _293  and  _295
REMARK  115  A    between atoms: _295  and  _296
REMARK  116  A    between atoms: _299  and  _301
REMARK  117  A    between atoms: _301  and  _302
REMARK  118  A    between atoms: _304  and  _306
REMARK  119  A    between atoms: _306  and  _307
REMARK  120  A    between atoms: _306  and  _309
REMARK                            x       y       z     vdW  Elec       q    Type
REMARK                         _______ _______ _______ _____ _____    ______ ____
ROOT
ATOM      1  C   ALA A   2      22.153  38.229  71.291  0.00  0.00    +0.241 C 
ATOM      2  N   GLY A   3      21.780  37.662  72.439  0.00  0.00    -0.295 N 
ATOM      3  H   GLY A   3      21.408  36.691  72.422  0.00  0.00    +0.150 HD
ATOM      4  O   ALA A   2      22.601  39.375  71.228  0.00  0.00    -0.273 OA
ENDROOT
BRANCH   1   5
ATOM      5  CA  ALA A   2      22.027  37.368  70.030  0.00  0.00    +0.149 C 
ATOM      6  CB  ALA A   2      23.417  36.878  69.587  0.00  0.00    +0.031 C 
BRANCH   5   9
ATOM      7  C   CYS A   1      20.055  38.257  68.866  0.00  0.00    +0.239 C 
ATOM      8  O   CYS A   1      19.250  37.764  69.668  0.00  0.00    -0.274 OA
ATOM      9  N   ALA A   2      21.378  38.091  68.940  0.00  0.00    -0.297 N 
ATOM     10  H   ALA A   2      21.972  38.495  68.188  0.00  0.00    +0.150 HD
BRANCH   7  11
ATOM     11  CA  CYS A   1      19.563  39.115  67.712  0.00  0.00    +0.156 C 
BRANCH  11  12
ATOM     12  N   CYS A   1      18.306  38.631  67.166  0.00  0.00    -0.237 NA
ATOM     13  H   CYS A   1      17.449  39.203  67.305  0.00  0.00    +0.142 HD
ENDBRANCH  11  12
BRANCH  11  14
ATOM     14  CB  CYS A   1      19.414  40.558  68.190  0.00  0.00    +0.095 C 
ATOM     15  SG  CYS A   1      18.955  41.694  66.884  0.00  0.00    -0.080 S 
ENDBRANCH  11  14
ENDBRANCH   7  11
ENDBRANCH   5   9
ENDBRANCH   1   5
BRANCH   2  16
ATOM     16  CA  GLY A   3      21.877  38.364  73.729  0.00  0.00    +0.176 C 
BRANCH  16  17
ATOM     17  C   GLY A   3      20.748  38.056  74.710  0.00  0.00    +0.243 C 
ATOM     18  N   CYS A   4      21.116  37.718  75.948  0.00  0.00    -0.297 N 
ATOM     19  H   CYS A   4      22.131  37.622  76.153  0.00  0.00    +0.150 HD
ATOM     20  O   GLY A   3      19.583  38.117  74.357  0.00  0.00    -0.273 OA
BRANCH  18  21
ATOM     21  CA  CYS A   4      20.152  37.474  77.040  0.00  0.00    +0.149 C 
BRANCH  21  22
ATOM     22  C   CYS A   4      20.135  38.685  77.981  0.00  0.00    +0.228 C 
ATOM     23  O   CYS A   4      21.206  39.117  78.445  0.00  0.00    -0.286 OA
ENDBRANCH  21  22
BRANCH  21  24
ATOM     24  CB  CYS A   4      20.552  36.228  77.840  0.00  0.00    +0.096 C 
ATOM     25  SG  CYS A   4      20.857  34.737  76.859  0.00  0.00    -0.080 S 
ENDBRANCH  21  24
ENDBRANCH  18  21
ENDBRANCH  16  17
ENDBRANCH   2  16
TORSDOF 10
REMARK  Name = ../refined-set-2016/1xge/1xge_pocket.pdb
REMARK  120 active torsions:
REMARK  status: ('A' for Active; 'I' for Inactive)
REMARK    1  A    between atoms: _1  and  _3
REMARK    2  A    between atoms: _14  and  _17
REMARK    3  A    between atoms: _17  and  _18
REMARK    4  A    between atoms: _23  and  _24
REMARK    5  A    between atoms: _32  and  _34
REMARK    6  A    between atoms: _34  and  _35
REMARK    7  A    between atoms: _34  and  _37
REMARK    8  A    between atoms: _37  and  _38
REMARK    9  A    between atoms: _41  and  _43
REMARK   10  A    between atoms: _43  and  _44
REMARK   11  A    between atoms: _43  and  _46
REMARK   12  A    between atoms: _46  and  _47
REMARK   13  A    between atoms: _47  and  _48
REMARK   14  A    between atoms: _48  and  _49
REMARK   15  A    between atoms: _58  and  _60
REMARK   16  A    between atoms: _60  and  _61
REMARK   17  A    between atoms: _60  and  _63
REMARK   18  A    between atoms: _63  and  _64
REMARK   19  A    between atoms: _64  and  _65
REMARK   20  A    between atoms: _67  and  _69
REMARK   21  A    between atoms: _69  and  _70
REMARK   22  A    between atoms: _69  and  _72
REMARK   23  A    between atoms: _72  and  _73
REMARK   24  A    between atoms: _78  and  _80
REMARK   25  A    between atoms: _80  and  _81
REMARK   26  A    between atoms: _80  and  _83
REMARK   27  A    between atoms: _83  and  _84
REMARK   28  A    between atoms: _87  and  _89
REMARK   29  A    between atoms: _89  and  _90
REMARK   30  A    between atoms: _89  and  _96
REMARK   31  A    between atoms: _90  and  _91
REMARK   32  A    between atoms: _91  and  _92
REMARK   33  A    between atoms: _92  and  _93
REMARK   34  A    between atoms: _93  and  _94
REMARK   35  A    between atoms: _94  and  _98
REMARK   36  A    between atoms: _101  and  _103
REMARK   37  A    between atoms: _103  and  _104
REMARK   38  A    between atoms: _103  and  _106
REMARK   39  A    between atoms: _106  and  _107
REMARK   40  A    between atoms: _112  and  _113
REMARK   41  A    between atoms: _116  and  _117
REMARK   42  A    between atoms: _122  and  _124
REMARK   43  A    between atoms: _124  and  _125
REMARK   44  A    between atoms: _124  and  _127
REMARK   45  A    between atoms: _127  and  _128
REMARK   46  A    between atoms: _129  and  ZN_311
REMARK   47  A    between atoms: _133  and  _135
REMARK   48  A    between atoms: _135  and  _136
REMARK   49  A    between atoms: _135  and  _138
REMARK   50  A    between atoms: _138  and  _139
REMARK   51  A    between atoms: _139  and  _140
REMARK   52  A    between atoms: _143  and  _145
REMARK   53  A    between atoms: _145  and  _146
REMARK   54  A    between atoms: _145  and  _148
REMARK   55  A    between atoms: _148  and  _149
REMARK   56  A    between atoms: _153  and  ZN_311
REMARK   57  A    between atoms: _154  and  _156
REMARK   58  A    between atoms: _156  and  _157
REMARK   59  A    between atoms: _156  and  _159
REMARK   60  A    between atoms: _159  and  _160
REMARK   61  A    between atoms: _160  and  _161
REMARK   62  A    between atoms: _166  and  _168
REMARK   63  A    between atoms: _168  and  _169
REMARK   64  A    between atoms: _168  and  _171
REMARK   65  A    between atoms: _171  and  _172
REMARK   66  A    between atoms: _177  and  _179
REMARK   67  A    between atoms: _179  and  _180
REMARK   68  A    between atoms: _179  and  _182
REMARK   69  A    between atoms: _182  and  _183
REMARK   70  A    between atoms: _186  and  _188
REMARK   71  A    between atoms: _188  and  _189
REMARK   72  A    between atoms: _188  and  _191
REMARK   73  A    between atoms: _191  and  _192
REMARK   74  A    between atoms: _197  and  _198
REMARK   75  A    between atoms: _200  and  _202
REMARK   76  A    between atoms: _202  and  _203
REMARK   77  A    between atoms: _202  and  _205
REMARK   78  A    between atoms: _207  and  _209
REMARK   79  A    between atoms: _209  and  _210
REMARK   80  A    between atoms: _209  and  _212
REMARK   81  A    between atoms: _212  and  _213
REMARK   82  A    between atoms: _217  and  _218
REMARK   83  A    between atoms: _223  and  _225
REMARK   84  A    between atoms: _225  and  _226
REMARK   85  A    between atoms: _225  and  _228
REMARK   86  A    between atoms: _228  and  _229
REMARK   87  A    between atoms: _232  and  _234
REMARK   88  A    between atoms: _234  and  _235
REMARK   89  A    between atoms: _234  and  _237
REMARK   90  A    between atoms: _237  and  _238
REMARK   91  A    between atoms: _238  and  _239
REMARK   92  A    between atoms: _239  and  ZN_312
REMARK   93  A    between atoms: _241  and  _243
REMARK   94  A    between atoms: _243  and  _244
REMARK   95  A    between atoms: _243  and  _246
REMARK   96  A    between atoms: _246  and  _247
REMARK   97  A    between atoms: _249  and  _251
REMARK   98  A    between atoms: _251  and  _252
REMARK   99  A    between atoms: _256  and  _257
REMARK  100  A    between atoms: _262  and  _264
REMARK  101  A    between atoms: _264  and  _265
REMARK  102  A    between atoms: _264  and  _267
REMARK  103  A    between atoms: _267  and  _268
REMARK  104  A    between atoms: _273  and  _275
REMARK  105  A    between atoms: _275  and  _276
REMARK  106  A    between atoms: _275  and  _278
REMARK  107  A    between atoms: _278  and  _279
REMARK  108  A    between atoms: _279  and  _280
REMARK  109  A    between atoms: _280  and  _281
REMARK  110  A    between atoms: _281  and  _282
REMARK  111  A    between atoms: _286  and  _288
REMARK  112  A    between atoms: _288  and  _289
REMARK  113  A    between atoms: _288  and  _291
REMARK  114  A    between atoms: _293  and  _295
REMARK  115  A    between atoms: _295  and  _296
REMARK  116  A    between atoms: _299  and  _301
REMARK  117  A    between atoms: _301  and  _302
REMARK  118  A    between atoms: _304  and  _306
REMARK  119  A    between atoms: _306  and  _307
REMARK  120  A    between atoms: _306  and  _309
REMARK                            x       y       z     vdW  Elec       q    Type
REMARK                         _______ _______ _______ _____ _____    ______ ____
ROOT
ATOM      1  O   HOH     1      22.977  30.456  72.926  0.00  0.00    +0.000 OA
ENDROOT
TORSDOF 0
REMARK  Name = ../refined-set-2016/1xge/1xge_pocket.pdb
REMARK  120 active torsions:
REMARK  status: ('A' for Active; 'I' for Inactive)
REMARK    1  A    between atoms: _1  and  _3
REMARK    2  A    between atoms: _14  and  _17
REMARK    3  A    between atoms: _17  and  _18
REMARK    4  A    between atoms: _23  and  _24
REMARK    5  A    between atoms: _32  and  _34
REMARK    6  A    between atoms: _34  and  _35
REMARK    7  A    between atoms: _34  and  _37
REMARK    8  A    between atoms: _37  and  _38
REMARK    9  A    between atoms: _41  and  _43
REMARK   10  A    between atoms: _43  and  _44
REMARK   11  A    between atoms: _43  and  _46
REMARK   12  A    between atoms: _46  and  _47
REMARK   13  A    between atoms: _47  and  _48
REMARK   14  A    between atoms: _48  and  _49
REMARK   15  A    between atoms: _58  and  _60
REMARK   16  A    between atoms: _60  and  _61
REMARK   17  A    between atoms: _60  and  _63
REMARK   18  A    between atoms: _63  and  _64
REMARK   19  A    between atoms: _64  and  _65
REMARK   20  A    between atoms: _67  and  _69
REMARK   21  A    between atoms: _69  and  _70
REMARK   22  A    between atoms: _69  and  _72
REMARK   23  A    between atoms: _72  and  _73
REMARK   24  A    between atoms: _78  and  _80
REMARK   25  A    between atoms: _80  and  _81
REMARK   26  A    between atoms: _80  and  _83
REMARK   27  A    between atoms: _83  and  _84
REMARK   28  A    between atoms: _87  and  _89
REMARK   29  A    between atoms: _89  and  _90
REMARK   30  A    between atoms: _89  and  _96
REMARK   31  A    between atoms: _90  and  _91
REMARK   32  A    between atoms: _91  and  _92
REMARK   33  A    between atoms: _92  and  _93
REMARK   34  A    between atoms: _93  and  _94
REMARK   35  A    between atoms: _94  and  _98
REMARK   36  A    between atoms: _101  and  _103
REMARK   37  A    between atoms: _103  and  _104
REMARK   38  A    between atoms: _103  and  _106
REMARK   39  A    between atoms: _106  and  _107
REMARK   40  A    between atoms: _112  and  _113
REMARK   41  A    between atoms: _116  and  _117
REMARK   42  A    between atoms: _122  and  _124
REMARK   43  A    between atoms: _124  and  _125
REMARK   44  A    between atoms: _124  and  _127
REMARK   45  A    between atoms: _127  and  _128
REMARK   46  A    between atoms: _129  and  ZN_311
REMARK   47  A    between atoms: _133  and  _135
REMARK   48  A    between atoms: _135  and  _136
REMARK   49  A    between atoms: _135  and  _138
REMARK   50  A    between atoms: _138  and  _139
REMARK   51  A    between atoms: _139  and  _140
REMARK   52  A    between atoms: _143  and  _145
REMARK   53  A    between atoms: _145  and  _146
REMARK   54  A    between atoms: _145  and  _148
REMARK   55  A    between atoms: _148  and  _149
REMARK   56  A    between atoms: _153  and  ZN_311
REMARK   57  A    between atoms: _154  and  _156
REMARK   58  A    between atoms: _156  and  _157
REMARK   59  A    between atoms: _156  and  _159
REMARK   60  A    between atoms: _159  and  _160
REMARK   61  A    between atoms: _160  and  _161
REMARK   62  A    between atoms: _166  and  _168
REMARK   63  A    between atoms: _168  and  _169
REMARK   64  A    between atoms: _168  and  _171
REMARK   65  A    between atoms: _171  and  _172
REMARK   66  A    between atoms: _177  and  _179
REMARK   67  A    between atoms: _179  and  _180
REMARK   68  A    between atoms: _179  and  _182
REMARK   69  A    between atoms: _182  and  _183
REMARK   70  A    between atoms: _186  and  _188
REMARK   71  A    between atoms: _188  and  _189
REMARK   72  A    between atoms: _188  and  _191
REMARK   73  A    between atoms: _191  and  _192
REMARK   74  A    between atoms: _197  and  _198
REMARK   75  A    between atoms: _200  and  _202
REMARK   76  A    between atoms: _202  and  _203
REMARK   77  A    between atoms: _202  and  _205
REMARK   78  A    between atoms: _207  and  _209
REMARK   79  A    between atoms: _209  and  _210
REMARK   80  A    between atoms: _209  and  _212
REMARK   81  A    between atoms: _212  and  _213
REMARK   82  A    between atoms: _217  and  _218
REMARK   83  A    between atoms: _223  and  _225
REMARK   84  A    between atoms: _225  and  _226
REMARK   85  A    between atoms: _225  and  _228
REMARK   86  A    between atoms: _228  and  _229
REMARK   87  A    between atoms: _232  and  _234
REMARK   88  A    between atoms: _234  and  _235
REMARK   89  A    between atoms: _234  and  _237
REMARK   90  A    between atoms: _237  and  _238
REMARK   91  A    between atoms: _238  and  _239
REMARK   92  A    between atoms: _239  and  ZN_312
REMARK   93  A    between atoms: _241  and  _243
REMARK   94  A    between atoms: _243  and  _244
REMARK   95  A    between atoms: _243  and  _246
REMARK   96  A    between atoms: _246  and  _247
REMARK   97  A    between atoms: _249  and  _251
REMARK   98  A    between atoms: _251  and  _252
REMARK   99  A    between atoms: _256  and  _257
REMARK  100  A    between atoms: _262  and  _264
REMARK  101  A    between atoms: _264  and  _265
REMARK  102  A    between atoms: _264  and  _267
REMARK  103  A    between atoms: _267  and  _268
REMARK  104  A    between atoms: _273  and  _275
REMARK  105  A    between atoms: _275  and  _276
REMARK  106  A    between atoms: _275  and  _278
REMARK  107  A    between atoms: _278  and  _279
REMARK  108  A    between atoms: _279  and  _280
REMARK  109  A    between atoms: _280  and  _281
REMARK  110  A    between atoms: _281  and  _282
REMARK  111  A    between atoms: _286  and  _288
REMARK  112  A    between atoms: _288  and  _289
REMARK  113  A    between atoms: _288  and  _291
REMARK  114  A    between atoms: _293  and  _295
REMARK  115  A    between atoms: _295  and  _296
REMARK  116  A    between atoms: _299  and  _301
REMARK  117  A    between atoms: _301  and  _302
REMARK  118  A    between atoms: _304  and  _306
REMARK  119  A    between atoms: _306  and  _307
REMARK  120  A    between atoms: _306  and  _309
REMARK                            x       y       z     vdW  Elec       q    Type
REMARK                         _______ _______ _______ _____ _____    ______ ____
ROOT
ATOM      1  O   HOH     1      25.552  47.927  72.237  0.00  0.00    +0.000 OA
ENDROOT
TORSDOF 0
REMARK  Name = ../refined-set-2016/1xge/1xge_pocket.pdb
REMARK  120 active torsions:
REMARK  status: ('A' for Active; 'I' for Inactive)
REMARK    1  A    between atoms: _1  and  _3
REMARK    2  A    between atoms: _14  and  _17
REMARK    3  A    between atoms: _17  and  _18
REMARK    4  A    between atoms: _23  and  _24
REMARK    5  A    between atoms: _32  and  _34
REMARK    6  A    between atoms: _34  and  _35
REMARK    7  A    between atoms: _34  and  _37
REMARK    8  A    between atoms: _37  and  _38
REMARK    9  A    between atoms: _41  and  _43
REMARK   10  A    between atoms: _43  and  _44
REMARK   11  A    between atoms: _43  and  _46
REMARK   12  A    between atoms: _46  and  _47
REMARK   13  A    between atoms: _47  and  _48
REMARK   14  A    between atoms: _48  and  _49
REMARK   15  A    between atoms: _58  and  _60
REMARK   16  A    between atoms: _60  and  _61
REMARK   17  A    between atoms: _60  and  _63
REMARK   18  A    between atoms: _63  and  _64
REMARK   19  A    between atoms: _64  and  _65
REMARK   20  A    between atoms: _67  and  _69
REMARK   21  A    between atoms: _69  and  _70
REMARK   22  A    between atoms: _69  and  _72
REMARK   23  A    between atoms: _72  and  _73
REMARK   24  A    between atoms: _78  and  _80
REMARK   25  A    between atoms: _80  and  _81
REMARK   26  A    between atoms: _80  and  _83
REMARK   27  A    between atoms: _83  and  _84
REMARK   28  A    between atoms: _87  and  _89
REMARK   29  A    between atoms: _89  and  _90
REMARK   30  A    between atoms: _89  and  _96
REMARK   31  A    between atoms: _90  and  _91
REMARK   32  A    between atoms: _91  and  _92
REMARK   33  A    between atoms: _92  and  _93
REMARK   34  A    between atoms: _93  and  _94
REMARK   35  A    between atoms: _94  and  _98
REMARK   36  A    between atoms: _101  and  _103
REMARK   37  A    between atoms: _103  and  _104
REMARK   38  A    between atoms: _103  and  _106
REMARK   39  A    between atoms: _106  and  _107
REMARK   40  A    between atoms: _112  and  _113
REMARK   41  A    between atoms: _116  and  _117
REMARK   42  A    between atoms: _122  and  _124
REMARK   43  A    between atoms: _124  and  _125
REMARK   44  A    between atoms: _124  and  _127
REMARK   45  A    between atoms: _127  and  _128
REMARK   46  A    between atoms: _129  and  ZN_311
REMARK   47  A    between atoms: _133  and  _135
REMARK   48  A    between atoms: _135  and  _136
REMARK   49  A    between atoms: _135  and  _138
REMARK   50  A    between atoms: _138  and  _139
REMARK   51  A    between atoms: _139  and  _140
REMARK   52  A    between atoms: _143  and  _145
REMARK   53  A    between atoms: _145  and  _146
REMARK   54  A    between atoms: _145  and  _148
REMARK   55  A    between atoms: _148  and  _149
REMARK   56  A    between atoms: _153  and  ZN_311
REMARK   57  A    between atoms: _154  and  _156
REMARK   58  A    between atoms: _156  and  _157
REMARK   59  A    between atoms: _156  and  _159
REMARK   60  A    between atoms: _159  and  _160
REMARK   61  A    between atoms: _160  and  _161
REMARK   62  A    between atoms: _166  and  _168
REMARK   63  A    between atoms: _168  and  _169
REMARK   64  A    between atoms: _168  and  _171
REMARK   65  A    between atoms: _171  and  _172
REMARK   66  A    between atoms: _177  and  _179
REMARK   67  A    between atoms: _179  and  _180
REMARK   68  A    between atoms: _179  and  _182
REMARK   69  A    between atoms: _182  and  _183
REMARK   70  A    between atoms: _186  and  _188
REMARK   71  A    between atoms: _188  and  _189
REMARK   72  A    between atoms: _188  and  _191
REMARK   73  A    between atoms: _191  and  _192
REMARK   74  A    between atoms: _197  and  _198
REMARK   75  A    between atoms: _200  and  _202
REMARK   76  A    between atoms: _202  and  _203
REMARK   77  A    between atoms: _202  and  _205
REMARK   78  A    between atoms: _207  and  _209
REMARK   79  A    between atoms: _209  and  _210
REMARK   80  A    between atoms: _209  and  _212
REMARK   81  A    between atoms: _212  and  _213
REMARK   82  A    between atoms: _217  and  _218
REMARK   83  A    between atoms: _223  and  _225
REMARK   84  A    between atoms: _225  and  _226
REMARK   85  A    between atoms: _225  and  _228
REMARK   86  A    between atoms: _228  and  _229
REMARK   87  A    between atoms: _232  and  _234
REMARK   88  A    between atoms: _234  and  _235
REMARK   89  A    between atoms: _234  and  _237
REMARK   90  A    between atoms: _237  and  _238
REMARK   91  A    between atoms: _238  and  _239
REMARK   92  A    between atoms: _239  and  ZN_312
REMARK   93  A    between atoms: _241  and  _243
REMARK   94  A    between atoms: _243  and  _244
REMARK   95  A    between atoms: _243  and  _246
REMARK   96  A    between atoms: _246  and  _247
REMARK   97  A    between atoms: _249  and  _251
REMARK   98  A    between atoms: _251  and  _252
REMARK   99  A    between atoms: _256  and  _257
REMARK  100  A    between atoms: _262  and  _264
REMARK  101  A    between atoms: _264  and  _265
REMARK  102  A    between atoms: _264  and  _267
REMARK  103  A    between atoms: _267  and  _268
REMARK  104  A    between atoms: _273  and  _275
REMARK  105  A    between atoms: _275  and  _276
REMARK  106  A    between atoms: _275  and  _278
REMARK  107  A    between atoms: _278  and  _279
REMARK  108  A    between atoms: _279  and  _280
REMARK  109  A    between atoms: _280  and  _281
REMARK  110  A    between atoms: _281  and  _282
REMARK  111  A    between atoms: _286  and  _288
REMARK  112  A    between atoms: _288  and  _289
REMARK  113  A    between atoms: _288  and  _291
REMARK  114  A    between atoms: _293  and  _295
REMARK  115  A    between atoms: _295  and  _296
REMARK  116  A    between atoms: _299  and  _301
REMARK  117  A    between atoms: _301  and  _302
REMARK  118  A    between atoms: _304  and  _306
REMARK  119  A    between atoms: _306  and  _307
REMARK  120  A    between atoms: _306  and  _309
REMARK                            x       y       z     vdW  Elec       q    Type
REMARK                         _______ _______ _______ _____ _____    ______ ____
ROOT
ATOM      1  O   HOH     1      29.984  39.371  69.140  0.00  0.00    +0.000 OA
ENDROOT
TORSDOF 0
REMARK  Name = ../refined-set-2016/1xge/1xge_pocket.pdb
REMARK  120 active torsions:
REMARK  status: ('A' for Active; 'I' for Inactive)
REMARK    1  A    between atoms: _1  and  _3
REMARK    2  A    between atoms: _14  and  _17
REMARK    3  A    between atoms: _17  and  _18
REMARK    4  A    between atoms: _23  and  _24
REMARK    5  A    between atoms: _32  and  _34
REMARK    6  A    between atoms: _34  and  _35
REMARK    7  A    between atoms: _34  and  _37
REMARK    8  A    between atoms: _37  and  _38
REMARK    9  A    between atoms: _41  and  _43
REMARK   10  A    between atoms: _43  and  _44
REMARK   11  A    between atoms: _43  and  _46
REMARK   12  A    between atoms: _46  and  _47
REMARK   13  A    between atoms: _47  and  _48
REMARK   14  A    between atoms: _48  and  _49
REMARK   15  A    between atoms: _58  and  _60
REMARK   16  A    between atoms: _60  and  _61
REMARK   17  A    between atoms: _60  and  _63
REMARK   18  A    between atoms: _63  and  _64
REMARK   19  A    between atoms: _64  and  _65
REMARK   20  A    between atoms: _67  and  _69
REMARK   21  A    between atoms: _69  and  _70
REMARK   22  A    between atoms: _69  and  _72
REMARK   23  A    between atoms: _72  and  _73
REMARK   24  A    between atoms: _78  and  _80
REMARK   25  A    between atoms: _80  and  _81
REMARK   26  A    between atoms: _80  and  _83
REMARK   27  A    between atoms: _83  and  _84
REMARK   28  A    between atoms: _87  and  _89
REMARK   29  A    between atoms: _89  and  _90
REMARK   30  A    between atoms: _89  and  _96
REMARK   31  A    between atoms: _90  and  _91
REMARK   32  A    between atoms: _91  and  _92
REMARK   33  A    between atoms: _92  and  _93
REMARK   34  A    between atoms: _93  and  _94
REMARK   35  A    between atoms: _94  and  _98
REMARK   36  A    between atoms: _101  and  _103
REMARK   37  A    between atoms: _103  and  _104
REMARK   38  A    between atoms: _103  and  _106
REMARK   39  A    between atoms: _106  and  _107
REMARK   40  A    between atoms: _112  and  _113
REMARK   41  A    between atoms: _116  and  _117
REMARK   42  A    between atoms: _122  and  _124
REMARK   43  A    between atoms: _124  and  _125
REMARK   44  A    between atoms: _124  and  _127
REMARK   45  A    between atoms: _127  and  _128
REMARK   46  A    between atoms: _129  and  ZN_311
REMARK   47  A    between atoms: _133  and  _135
REMARK   48  A    between atoms: _135  and  _136
REMARK   49  A    between atoms: _135  and  _138
REMARK   50  A    between atoms: _138  and  _139
REMARK   51  A    between atoms: _139  and  _140
REMARK   52  A    between atoms: _143  and  _145
REMARK   53  A    between atoms: _145  and  _146
REMARK   54  A    between atoms: _145  and  _148
REMARK   55  A    between atoms: _148  and  _149
REMARK   56  A    between atoms: _153  and  ZN_311
REMARK   57  A    between atoms: _154  and  _156
REMARK   58  A    between atoms: _156  and  _157
REMARK   59  A    between atoms: _156  and  _159
REMARK   60  A    between atoms: _159  and  _160
REMARK   61  A    between atoms: _160  and  _161
REMARK   62  A    between atoms: _166  and  _168
REMARK   63  A    between atoms: _168  and  _169
REMARK   64  A    between atoms: _168  and  _171
REMARK   65  A    between atoms: _171  and  _172
REMARK   66  A    between atoms: _177  and  _179
REMARK   67  A    between atoms: _179  and  _180
REMARK   68  A    between atoms: _179  and  _182
REMARK   69  A    between atoms: _182  and  _183
REMARK   70  A    between atoms: _186  and  _188
REMARK   71  A    between atoms: _188  and  _189
REMARK   72  A    between atoms: _188  and  _191
REMARK   73  A    between atoms: _191  and  _192
REMARK   74  A    between atoms: _197  and  _198
REMARK   75  A    between atoms: _200  and  _202
REMARK   76  A    between atoms: _202  and  _203
REMARK   77  A    between atoms: _202  and  _205
REMARK   78  A    between atoms: _207  and  _209
REMARK   79  A    between atoms: _209  and  _210
REMARK   80  A    between atoms: _209  and  _212
REMARK   81  A    between atoms: _212  and  _213
REMARK   82  A    between atoms: _217  and  _218
REMARK   83  A    between atoms: _223  and  _225
REMARK   84  A    between atoms: _225  and  _226
REMARK   85  A    between atoms: _225  and  _228
REMARK   86  A    between atoms: _228  and  _229
REMARK   87  A    between atoms: _232  and  _234
REMARK   88  A    between atoms: _234  and  _235
REMARK   89  A    between atoms: _234  and  _237
REMARK   90  A    between atoms: _237  and  _238
REMARK   91  A    between atoms: _238  and  _239
REMARK   92  A    between atoms: _239  and  ZN_312
REMARK   93  A    between atoms: _241  and  _243
REMARK   94  A    between atoms: _243  and  _244
REMARK   95  A    between atoms: _243  and  _246
REMARK   96  A    between atoms: _246  and  _247
REMARK   97  A    between atoms: _249  and  _251
REMARK   98  A    between atoms: _251  and  _252
REMARK   99  A    between atoms: _256  and  _257
REMARK  100  A    between atoms: _262  and  _264
REMARK  101  A    between atoms: _264  and  _265
REMARK  102  A    between atoms: _264  and  _267
REMARK  103  A    between atoms: _267  and  _268
REMARK  104  A    between atoms: _273  and  _275
REMARK  105  A    between atoms: _275  and  _276
REMARK  106  A    between atoms: _275  and  _278
REMARK  107  A    between atoms: _278  and  _279
REMARK  108  A    between atoms: _279  and  _280
REMARK  109  A    between atoms: _280  and  _281
REMARK  110  A    between atoms: _281  and  _282
REMARK  111  A    between atoms: _286  and  _288
REMARK  112  A    between atoms: _288  and  _289
REMARK  113  A    between atoms: _288  and  _291
REMARK  114  A    between atoms: _293  and  _295
REMARK  115  A    between atoms: _295  and  _296
REMARK  116  A    between atoms: _299  and  _301
REMARK  117  A    between atoms: _301  and  _302
REMARK  118  A    between atoms: _304  and  _306
REMARK  119  A    between atoms: _306  and  _307
REMARK  120  A    between atoms: _306  and  _309
REMARK                            x       y       z     vdW  Elec       q    Type
REMARK                         _______ _______ _______ _____ _____    ______ ____
ROOT
ATOM      1  O   HOH     1      29.913  48.067  67.686  0.00  0.00    +0.000 OA
ENDROOT
TORSDOF 0
REMARK  Name = ../refined-set-2016/1xge/1xge_pocket.pdb
REMARK  120 active torsions:
REMARK  status: ('A' for Active; 'I' for Inactive)
REMARK    1  A    between atoms: _1  and  _3
REMARK    2  A    between atoms: _14  and  _17
REMARK    3  A    between atoms: _17  and  _18
REMARK    4  A    between atoms: _23  and  _24
REMARK    5  A    between atoms: _32  and  _34
REMARK    6  A    between atoms: _34  and  _35
REMARK    7  A    between atoms: _34  and  _37
REMARK    8  A    between atoms: _37  and  _38
REMARK    9  A    between atoms: _41  and  _43
REMARK   10  A    between atoms: _43  and  _44
REMARK   11  A    between atoms: _43  and  _46
REMARK   12  A    between atoms: _46  and  _47
REMARK   13  A    between atoms: _47  and  _48
REMARK   14  A    between atoms: _48  and  _49
REMARK   15  A    between atoms: _58  and  _60
REMARK   16  A    between atoms: _60  and  _61
REMARK   17  A    between atoms: _60  and  _63
REMARK   18  A    between atoms: _63  and  _64
REMARK   19  A    between atoms: _64  and  _65
REMARK   20  A    between atoms: _67  and  _69
REMARK   21  A    between atoms: _69  and  _70
REMARK   22  A    between atoms: _69  and  _72
REMARK   23  A    between atoms: _72  and  _73
REMARK   24  A    between atoms: _78  and  _80
REMARK   25  A    between atoms: _80  and  _81
REMARK   26  A    between atoms: _80  and  _83
REMARK   27  A    between atoms: _83  and  _84
REMARK   28  A    between atoms: _87  and  _89
REMARK   29  A    between atoms: _89  and  _90
REMARK   30  A    between atoms: _89  and  _96
REMARK   31  A    between atoms: _90  and  _91
REMARK   32  A    between atoms: _91  and  _92
REMARK   33  A    between atoms: _92  and  _93
REMARK   34  A    between atoms: _93  and  _94
REMARK   35  A    between atoms: _94  and  _98
REMARK   36  A    between atoms: _101  and  _103
REMARK   37  A    between atoms: _103  and  _104
REMARK   38  A    between atoms: _103  and  _106
REMARK   39  A    between atoms: _106  and  _107
REMARK   40  A    between atoms: _112  and  _113
REMARK   41  A    between atoms: _116  and  _117
REMARK   42  A    between atoms: _122  and  _124
REMARK   43  A    between atoms: _124  and  _125
REMARK   44  A    between atoms: _124  and  _127
REMARK   45  A    between atoms: _127  and  _128
REMARK   46  A    between atoms: _129  and  ZN_311
REMARK   47  A    between atoms: _133  and  _135
REMARK   48  A    between atoms: _135  and  _136
REMARK   49  A    between atoms: _135  and  _138
REMARK   50  A    between atoms: _138  and  _139
REMARK   51  A    between atoms: _139  and  _140
REMARK   52  A    between atoms: _143  and  _145
REMARK   53  A    between atoms: _145  and  _146
REMARK   54  A    between atoms: _145  and  _148
REMARK   55  A    between atoms: _148  and  _149
REMARK   56  A    between atoms: _153  and  ZN_311
REMARK   57  A    between atoms: _154  and  _156
REMARK   58  A    between atoms: _156  and  _157
REMARK   59  A    between atoms: _156  and  _159
REMARK   60  A    between atoms: _159  and  _160
REMARK   61  A    between atoms: _160  and  _161
REMARK   62  A    between atoms: _166  and  _168
REMARK   63  A    between atoms: _168  and  _169
REMARK   64  A    between atoms: _168  and  _171
REMARK   65  A    between atoms: _171  and  _172
REMARK   66  A    between atoms: _177  and  _179
REMARK   67  A    between atoms: _179  and  _180
REMARK   68  A    between atoms: _179  and  _182
REMARK   69  A    between atoms: _182  and  _183
REMARK   70  A    between atoms: _186  and  _188
REMARK   71  A    between atoms: _188  and  _189
REMARK   72  A    between atoms: _188  and  _191
REMARK   73  A    between atoms: _191  and  _192
REMARK   74  A    between atoms: _197  and  _198
REMARK   75  A    between atoms: _200  and  _202
REMARK   76  A    between atoms: _202  and  _203
REMARK   77  A    between atoms: _202  and  _205
REMARK   78  A    between atoms: _207  and  _209
REMARK   79  A    between atoms: _209  and  _210
REMARK   80  A    between atoms: _209  and  _212
REMARK   81  A    between atoms: _212  and  _213
REMARK   82  A    between atoms: _217  and  _218
REMARK   83  A    between atoms: _223  and  _225
REMARK   84  A    between atoms: _225  and  _226
REMARK   85  A    between atoms: _225  and  _228
REMARK   86  A    between atoms: _228  and  _229
REMARK   87  A    between atoms: _232  and  _234
REMARK   88  A    between atoms: _234  and  _235
REMARK   89  A    between atoms: _234  and  _237
REMARK   90  A    between atoms: _237  and  _238
REMARK   91  A    between atoms: _238  and  _239
REMARK   92  A    between atoms: _239  and  ZN_312
REMARK   93  A    between atoms: _241  and  _243
REMARK   94  A    between atoms: _243  and  _244
REMARK   95  A    between atoms: _243  and  _246
REMARK   96  A    between atoms: _246  and  _247
REMARK   97  A    between atoms: _249  and  _251
REMARK   98  A    between atoms: _251  and  _252
REMARK   99  A    between atoms: _256  and  _257
REMARK  100  A    between atoms: _262  and  _264
REMARK  101  A    between atoms: _264  and  _265
REMARK  102  A    between atoms: _264  and  _267
REMARK  103  A    between atoms: _267  and  _268
REMARK  104  A    between atoms: _273  and  _275
REMARK  105  A    between atoms: _275  and  _276
REMARK  106  A    between atoms: _275  and  _278
REMARK  107  A    between atoms: _278  and  _279
REMARK  108  A    between atoms: _279  and  _280
REMARK  109  A    between atoms: _280  and  _281
REMARK  110  A    between atoms: _281  and  _282
REMARK  111  A    between atoms: _286  and  _288
REMARK  112  A    between atoms: _288  and  _289
REMARK  113  A    between atoms: _288  and  _291
REMARK  114  A    between atoms: _293  and  _295
REMARK  115  A    between atoms: _295  and  _296
REMARK  116  A    between atoms: _299  and  _301
REMARK  117  A    between atoms: _301  and  _302
REMARK  118  A    between atoms: _304  and  _306
REMARK  119  A    between atoms: _306  and  _307
REMARK  120  A    between atoms: _306  and  _309
REMARK                            x       y       z     vdW  Elec       q    Type
REMARK                         _______ _______ _______ _____ _____    ______ ____
ROOT
ATOM      1  O   HOH     1      28.892  31.306  68.862  0.00  0.00    +0.000 OA
ENDROOT
TORSDOF 0
REMARK  Name = ../refined-set-2016/1xge/1xge_pocket.pdb
REMARK  120 active torsions:
REMARK  status: ('A' for Active; 'I' for Inactive)
REMARK    1  A    between atoms: _1  and  _3
REMARK    2  A    between atoms: _14  and  _17
REMARK    3  A    between atoms: _17  and  _18
REMARK    4  A    between atoms: _23  and  _24
REMARK    5  A    between atoms: _32  and  _34
REMARK    6  A    between atoms: _34  and  _35
REMARK    7  A    between atoms: _34  and  _37
REMARK    8  A    between atoms: _37  and  _38
REMARK    9  A    between atoms: _41  and  _43
REMARK   10  A    between atoms: _43  and  _44
REMARK   11  A    between atoms: _43  and  _46
REMARK   12  A    between atoms: _46  and  _47
REMARK   13  A    between atoms: _47  and  _48
REMARK   14  A    between atoms: _48  and  _49
REMARK   15  A    between atoms: _58  and  _60
REMARK   16  A    between atoms: _60  and  _61
REMARK   17  A    between atoms: _60  and  _63
REMARK   18  A    between atoms: _63  and  _64
REMARK   19  A    between atoms: _64  and  _65
REMARK   20  A    between atoms: _67  and  _69
REMARK   21  A    between atoms: _69  and  _70
REMARK   22  A    between atoms: _69  and  _72
REMARK   23  A    between atoms: _72  and  _73
REMARK   24  A    between atoms: _78  and  _80
REMARK   25  A    between atoms: _80  and  _81
REMARK   26  A    between atoms: _80  and  _83
REMARK   27  A    between atoms: _83  and  _84
REMARK   28  A    between atoms: _87  and  _89
REMARK   29  A    between atoms: _89  and  _90
REMARK   30  A    between atoms: _89  and  _96
REMARK   31  A    between atoms: _90  and  _91
REMARK   32  A    between atoms: _91  and  _92
REMARK   33  A    between atoms: _92  and  _93
REMARK   34  A    between atoms: _93  and  _94
REMARK   35  A    between atoms: _94  and  _98
REMARK   36  A    between atoms: _101  and  _103
REMARK   37  A    between atoms: _103  and  _104
REMARK   38  A    between atoms: _103  and  _106
REMARK   39  A    between atoms: _106  and  _107
REMARK   40  A    between atoms: _112  and  _113
REMARK   41  A    between atoms: _116  and  _117
REMARK   42  A    between atoms: _122  and  _124
REMARK   43  A    between atoms: _124  and  _125
REMARK   44  A    between atoms: _124  and  _127
REMARK   45  A    between atoms: _127  and  _128
REMARK   46  A    between atoms: _129  and  ZN_311
REMARK   47  A    between atoms: _133  and  _135
REMARK   48  A    between atoms: _135  and  _136
REMARK   49  A    between atoms: _135  and  _138
REMARK   50  A    between atoms: _138  and  _139
REMARK   51  A    between atoms: _139  and  _140
REMARK   52  A    between atoms: _143  and  _145
REMARK   53  A    between atoms: _145  and  _146
REMARK   54  A    between atoms: _145  and  _148
REMARK   55  A    between atoms: _148  and  _149
REMARK   56  A    between atoms: _153  and  ZN_311
REMARK   57  A    between atoms: _154  and  _156
REMARK   58  A    between atoms: _156  and  _157
REMARK   59  A    between atoms: _156  and  _159
REMARK   60  A    between atoms: _159  and  _160
REMARK   61  A    between atoms: _160  and  _161
REMARK   62  A    between atoms: _166  and  _168
REMARK   63  A    between atoms: _168  and  _169
REMARK   64  A    between atoms: _168  and  _171
REMARK   65  A    between atoms: _171  and  _172
REMARK   66  A    between atoms: _177  and  _179
REMARK   67  A    between atoms: _179  and  _180
REMARK   68  A    between atoms: _179  and  _182
REMARK   69  A    between atoms: _182  and  _183
REMARK   70  A    between atoms: _186  and  _188
REMARK   71  A    between atoms: _188  and  _189
REMARK   72  A    between atoms: _188  and  _191
REMARK   73  A    between atoms: _191  and  _192
REMARK   74  A    between atoms: _197  and  _198
REMARK   75  A    between atoms: _200  and  _202
REMARK   76  A    between atoms: _202  and  _203
REMARK   77  A    between atoms: _202  and  _205
REMARK   78  A    between atoms: _207  and  _209
REMARK   79  A    between atoms: _209  and  _210
REMARK   80  A    between atoms: _209  and  _212
REMARK   81  A    between atoms: _212  and  _213
REMARK   82  A    between atoms: _217  and  _218
REMARK   83  A    between atoms: _223  and  _225
REMARK   84  A    between atoms: _225  and  _226
REMARK   85  A    between atoms: _225  and  _228
REMARK   86  A    between atoms: _228  and  _229
REMARK   87  A    between atoms: _232  and  _234
REMARK   88  A    between atoms: _234  and  _235
REMARK   89  A    between atoms: _234  and  _237
REMARK   90  A    between atoms: _237  and  _238
REMARK   91  A    between atoms: _238  and  _239
REMARK   92  A    between atoms: _239  and  ZN_312
REMARK   93  A    between atoms: _241  and  _243
REMARK   94  A    between atoms: _243  and  _244
REMARK   95  A    between atoms: _243  and  _246
REMARK   96  A    between atoms: _246  and  _247
REMARK   97  A    between atoms: _249  and  _251
REMARK   98  A    between atoms: _251  and  _252
REMARK   99  A    between atoms: _256  and  _257
REMARK  100  A    between atoms: _262  and  _264
REMARK  101  A    between atoms: _264  and  _265
REMARK  102  A    between atoms: _264  and  _267
REMARK  103  A    between atoms: _267  and  _268
REMARK  104  A    between atoms: _273  and  _275
REMARK  105  A    between atoms: _275  and  _276
REMARK  106  A    between atoms: _275  and  _278
REMARK  107  A    between atoms: _278  and  _279
REMARK  108  A    between atoms: _279  and  _280
REMARK  109  A    between atoms: _280  and  _281
REMARK  110  A    between atoms: _281  and  _282
REMARK  111  A    between atoms: _286  and  _288
REMARK  112  A    between atoms: _288  and  _289
REMARK  113  A    between atoms: _288  and  _291
REMARK  114  A    between atoms: _293  and  _295
REMARK  115  A    between atoms: _295  and  _296
REMARK  116  A    between atoms: _299  and  _301
REMARK  117  A    between atoms: _301  and  _302
REMARK  118  A    between atoms: _304  and  _306
REMARK  119  A    between atoms: _306  and  _307
REMARK  120  A    between atoms: _306  and  _309
REMARK                            x       y       z     vdW  Elec       q    Type
REMARK                         _______ _______ _______ _____ _____    ______ ____
ROOT
ATOM      1  O   HOH     1      23.990  37.466  76.703  0.00  0.00    +0.000 OA
ENDROOT
TORSDOF 0
REMARK  Name = ../refined-set-2016/1xge/1xge_pocket.pdb
REMARK  120 active torsions:
REMARK  status: ('A' for Active; 'I' for Inactive)
REMARK    1  A    between atoms: _1  and  _3
REMARK    2  A    between atoms: _14  and  _17
REMARK    3  A    between atoms: _17  and  _18
REMARK    4  A    between atoms: _23  and  _24
REMARK    5  A    between atoms: _32  and  _34
REMARK    6  A    between atoms: _34  and  _35
REMARK    7  A    between atoms: _34  and  _37
REMARK    8  A    between atoms: _37  and  _38
REMARK    9  A    between atoms: _41  and  _43
REMARK   10  A    between atoms: _43  and  _44
REMARK   11  A    between atoms: _43  and  _46
REMARK   12  A    between atoms: _46  and  _47
REMARK   13  A    between atoms: _47  and  _48
REMARK   14  A    between atoms: _48  and  _49
REMARK   15  A    between atoms: _58  and  _60
REMARK   16  A    between atoms: _60  and  _61
REMARK   17  A    between atoms: _60  and  _63
REMARK   18  A    between atoms: _63  and  _64
REMARK   19  A    between atoms: _64  and  _65
REMARK   20  A    between atoms: _67  and  _69
REMARK   21  A    between atoms: _69  and  _70
REMARK   22  A    between atoms: _69  and  _72
REMARK   23  A    between atoms: _72  and  _73
REMARK   24  A    between atoms: _78  and  _80
REMARK   25  A    between atoms: _80  and  _81
REMARK   26  A    between atoms: _80  and  _83
REMARK   27  A    between atoms: _83  and  _84
REMARK   28  A    between atoms: _87  and  _89
REMARK   29  A    between atoms: _89  and  _90
REMARK   30  A    between atoms: _89  and  _96
REMARK   31  A    between atoms: _90  and  _91
REMARK   32  A    between atoms: _91  and  _92
REMARK   33  A    between atoms: _92  and  _93
REMARK   34  A    between atoms: _93  and  _94
REMARK   35  A    between atoms: _94  and  _98
REMARK   36  A    between atoms: _101  and  _103
REMARK   37  A    between atoms: _103  and  _104
REMARK   38  A    between atoms: _103  and  _106
REMARK   39  A    between atoms: _106  and  _107
REMARK   40  A    between atoms: _112  and  _113
REMARK   41  A    between atoms: _116  and  _117
REMARK   42  A    between atoms: _122  and  _124
REMARK   43  A    between atoms: _124  and  _125
REMARK   44  A    between atoms: _124  and  _127
REMARK   45  A    between atoms: _127  and  _128
REMARK   46  A    between atoms: _129  and  ZN_311
REMARK   47  A    between atoms: _133  and  _135
REMARK   48  A    between atoms: _135  and  _136
REMARK   49  A    between atoms: _135  and  _138
REMARK   50  A    between atoms: _138  and  _139
REMARK   51  A    between atoms: _139  and  _140
REMARK   52  A    between atoms: _143  and  _145
REMARK   53  A    between atoms: _145  and  _146
REMARK   54  A    between atoms: _145  and  _148
REMARK   55  A    between atoms: _148  and  _149
REMARK   56  A    between atoms: _153  and  ZN_311
REMARK   57  A    between atoms: _154  and  _156
REMARK   58  A    between atoms: _156  and  _157
REMARK   59  A    between atoms: _156  and  _159
REMARK   60  A    between atoms: _159  and  _160
REMARK   61  A    between atoms: _160  and  _161
REMARK   62  A    between atoms: _166  and  _168
REMARK   63  A    between atoms: _168  and  _169
REMARK   64  A    between atoms: _168  and  _171
REMARK   65  A    between atoms: _171  and  _172
REMARK   66  A    between atoms: _177  and  _179
REMARK   67  A    between atoms: _179  and  _180
REMARK   68  A    between atoms: _179  and  _182
REMARK   69  A    between atoms: _182  and  _183
REMARK   70  A    between atoms: _186  and  _188
REMARK   71  A    between atoms: _188  and  _189
REMARK   72  A    between atoms: _188  and  _191
REMARK   73  A    between atoms: _191  and  _192
REMARK   74  A    between atoms: _197  and  _198
REMARK   75  A    between atoms: _200  and  _202
REMARK   76  A    between atoms: _202  and  _203
REMARK   77  A    between atoms: _202  and  _205
REMARK   78  A    between atoms: _207  and  _209
REMARK   79  A    between atoms: _209  and  _210
REMARK   80  A    between atoms: _209  and  _212
REMARK   81  A    between atoms: _212  and  _213
REMARK   82  A    between atoms: _217  and  _218
REMARK   83  A    between atoms: _223  and  _225
REMARK   84  A    between atoms: _225  and  _226
REMARK   85  A    between atoms: _225  and  _228
REMARK   86  A    between atoms: _228  and  _229
REMARK   87  A    between atoms: _232  and  _234
REMARK   88  A    between atoms: _234  and  _235
REMARK   89  A    between atoms: _234  and  _237
REMARK   90  A    between atoms: _237  and  _238
REMARK   91  A    between atoms: _238  and  _239
REMARK   92  A    between atoms: _239  and  ZN_312
REMARK   93  A    between atoms: _241  and  _243
REMARK   94  A    between atoms: _243  and  _244
REMARK   95  A    between atoms: _243  and  _246
REMARK   96  A    between atoms: _246  and  _247
REMARK   97  A    between atoms: _249  and  _251
REMARK   98  A    between atoms: _251  and  _252
REMARK   99  A    between atoms: _256  and  _257
REMARK  100  A    between atoms: _262  and  _264
REMARK  101  A    between atoms: _264  and  _265
REMARK  102  A    between atoms: _264  and  _267
REMARK  103  A    between atoms: _267  and  _268
REMARK  104  A    between atoms: _273  and  _275
REMARK  105  A    between atoms: _275  and  _276
REMARK  106  A    between atoms: _275  and  _278
REMARK  107  A    between atoms: _278  and  _279
REMARK  108  A    between atoms: _279  and  _280
REMARK  109  A    between atoms: _280  and  _281
REMARK  110  A    between atoms: _281  and  _282
REMARK  111  A    between atoms: _286  and  _288
REMARK  112  A    between atoms: _288  and  _289
REMARK  113  A    between atoms: _288  and  _291
REMARK  114  A    between atoms: _293  and  _295
REMARK  115  A    between atoms: _295  and  _296
REMARK  116  A    between atoms: _299  and  _301
REMARK  117  A    between atoms: _301  and  _302
REMARK  118  A    between atoms: _304  and  _306
REMARK  119  A    between atoms: _306  and  _307
REMARK  120  A    between atoms: _306  and  _309
REMARK                            x       y       z     vdW  Elec       q    Type
REMARK                         _______ _______ _______ _____ _____    ______ ____
ROOT
ATOM      1  O   HOH     1      27.598  49.026  76.813  0.00  0.00    +0.000 OA
ENDROOT
TORSDOF 0
REMARK  Name = ../refined-set-2016/1xge/1xge_pocket.pdb
REMARK  120 active torsions:
REMARK  status: ('A' for Active; 'I' for Inactive)
REMARK    1  A    between atoms: _1  and  _3
REMARK    2  A    between atoms: _14  and  _17
REMARK    3  A    between atoms: _17  and  _18
REMARK    4  A    between atoms: _23  and  _24
REMARK    5  A    between atoms: _32  and  _34
REMARK    6  A    between atoms: _34  and  _35
REMARK    7  A    between atoms: _34  and  _37
REMARK    8  A    between atoms: _37  and  _38
REMARK    9  A    between atoms: _41  and  _43
REMARK   10  A    between atoms: _43  and  _44
REMARK   11  A    between atoms: _43  and  _46
REMARK   12  A    between atoms: _46  and  _47
REMARK   13  A    between atoms: _47  and  _48
REMARK   14  A    between atoms: _48  and  _49
REMARK   15  A    between atoms: _58  and  _60
REMARK   16  A    between atoms: _60  and  _61
REMARK   17  A    between atoms: _60  and  _63
REMARK   18  A    between atoms: _63  and  _64
REMARK   19  A    between atoms: _64  and  _65
REMARK   20  A    between atoms: _67  and  _69
REMARK   21  A    between atoms: _69  and  _70
REMARK   22  A    between atoms: _69  and  _72
REMARK   23  A    between atoms: _72  and  _73
REMARK   24  A    between atoms: _78  and  _80
REMARK   25  A    between atoms: _80  and  _81
REMARK   26  A    between atoms: _80  and  _83
REMARK   27  A    between atoms: _83  and  _84
REMARK   28  A    between atoms: _87  and  _89
REMARK   29  A    between atoms: _89  and  _90
REMARK   30  A    between atoms: _89  and  _96
REMARK   31  A    between atoms: _90  and  _91
REMARK   32  A    between atoms: _91  and  _92
REMARK   33  A    between atoms: _92  and  _93
REMARK   34  A    between atoms: _93  and  _94
REMARK   35  A    between atoms: _94  and  _98
REMARK   36  A    between atoms: _101  and  _103
REMARK   37  A    between atoms: _103  and  _104
REMARK   38  A    between atoms: _103  and  _106
REMARK   39  A    between atoms: _106  and  _107
REMARK   40  A    between atoms: _112  and  _113
REMARK   41  A    between atoms: _116  and  _117
REMARK   42  A    between atoms: _122  and  _124
REMARK   43  A    between atoms: _124  and  _125
REMARK   44  A    between atoms: _124  and  _127
REMARK   45  A    between atoms: _127  and  _128
REMARK   46  A    between atoms: _129  and  ZN_311
REMARK   47  A    between atoms: _133  and  _135
REMARK   48  A    between atoms: _135  and  _136
REMARK   49  A    between atoms: _135  and  _138
REMARK   50  A    between atoms: _138  and  _139
REMARK   51  A    between atoms: _139  and  _140
REMARK   52  A    between atoms: _143  and  _145
REMARK   53  A    between atoms: _145  and  _146
REMARK   54  A    between atoms: _145  and  _148
REMARK   55  A    between atoms: _148  and  _149
REMARK   56  A    between atoms: _153  and  ZN_311
REMARK   57  A    between atoms: _154  and  _156
REMARK   58  A    between atoms: _156  and  _157
REMARK   59  A    between atoms: _156  and  _159
REMARK   60  A    between atoms: _159  and  _160
REMARK   61  A    between atoms: _160  and  _161
REMARK   62  A    between atoms: _166  and  _168
REMARK   63  A    between atoms: _168  and  _169
REMARK   64  A    between atoms: _168  and  _171
REMARK   65  A    between atoms: _171  and  _172
REMARK   66  A    between atoms: _177  and  _179
REMARK   67  A    between atoms: _179  and  _180
REMARK   68  A    between atoms: _179  and  _182
REMARK   69  A    between atoms: _182  and  _183
REMARK   70  A    between atoms: _186  and  _188
REMARK   71  A    between atoms: _188  and  _189
REMARK   72  A    between atoms: _188  and  _191
REMARK   73  A    between atoms: _191  and  _192
REMARK   74  A    between atoms: _197  and  _198
REMARK   75  A    between atoms: _200  and  _202
REMARK   76  A    between atoms: _202  and  _203
REMARK   77  A    between atoms: _202  and  _205
REMARK   78  A    between atoms: _207  and  _209
REMARK   79  A    between atoms: _209  and  _210
REMARK   80  A    between atoms: _209  and  _212
REMARK   81  A    between atoms: _212  and  _213
REMARK   82  A    between atoms: _217  and  _218
REMARK   83  A    between atoms: _223  and  _225
REMARK   84  A    between atoms: _225  and  _226
REMARK   85  A    between atoms: _225  and  _228
REMARK   86  A    between atoms: _228  and  _229
REMARK   87  A    between atoms: _232  and  _234
REMARK   88  A    between atoms: _234  and  _235
REMARK   89  A    between atoms: _234  and  _237
REMARK   90  A    between atoms: _237  and  _238
REMARK   91  A    between atoms: _238  and  _239
REMARK   92  A    between atoms: _239  and  ZN_312
REMARK   93  A    between atoms: _241  and  _243
REMARK   94  A    between atoms: _243  and  _244
REMARK   95  A    between atoms: _243  and  _246
REMARK   96  A    between atoms: _246  and  _247
REMARK   97  A    between atoms: _249  and  _251
REMARK   98  A    between atoms: _251  and  _252
REMARK   99  A    between atoms: _256  and  _257
REMARK  100  A    between atoms: _262  and  _264
REMARK  101  A    between atoms: _264  and  _265
REMARK  102  A    between atoms: _264  and  _267
REMARK  103  A    between atoms: _267  and  _268
REMARK  104  A    between atoms: _273  and  _275
REMARK  105  A    between atoms: _275  and  _276
REMARK  106  A    between atoms: _275  and  _278
REMARK  107  A    between atoms: _278  and  _279
REMARK  108  A    between atoms: _279  and  _280
REMARK  109  A    between atoms: _280  and  _281
REMARK  110  A    between atoms: _281  and  _282
REMARK  111  A    between atoms: _286  and  _288
REMARK  112  A    between atoms: _288  and  _289
REMARK  113  A    between atoms: _288  and  _291
REMARK  114  A    between atoms: _293  and  _295
REMARK  115  A    between atoms: _295  and  _296
REMARK  116  A    between atoms: _299  and  _301
REMARK  117  A    between atoms: _301  and  _302
REMARK  118  A    between atoms: _304  and  _306
REMARK  119  A    between atoms: _306  and  _307
REMARK  120  A    between atoms: _306  and  _309
REMARK                            x       y       z     vdW  Elec       q    Type
REMARK                         _______ _______ _______ _____ _____    ______ ____
ROOT
ATOM      1  O   HOH     1      34.888  34.517  74.673  0.00  0.00    +0.000 OA
ENDROOT
TORSDOF 0
REMARK  Name = ../refined-set-2016/1xge/1xge_pocket.pdb
REMARK  120 active torsions:
REMARK  status: ('A' for Active; 'I' for Inactive)
REMARK    1  A    between atoms: _1  and  _3
REMARK    2  A    between atoms: _14  and  _17
REMARK    3  A    between atoms: _17  and  _18
REMARK    4  A    between atoms: _23  and  _24
REMARK    5  A    between atoms: _32  and  _34
REMARK    6  A    between atoms: _34  and  _35
REMARK    7  A    between atoms: _34  and  _37
REMARK    8  A    between atoms: _37  and  _38
REMARK    9  A    between atoms: _41  and  _43
REMARK   10  A    between atoms: _43  and  _44
REMARK   11  A    between atoms: _43  and  _46
REMARK   12  A    between atoms: _46  and  _47
REMARK   13  A    between atoms: _47  and  _48
REMARK   14  A    between atoms: _48  and  _49
REMARK   15  A    between atoms: _58  and  _60
REMARK   16  A    between atoms: _60  and  _61
REMARK   17  A    between atoms: _60  and  _63
REMARK   18  A    between atoms: _63  and  _64
REMARK   19  A    between atoms: _64  and  _65
REMARK   20  A    between atoms: _67  and  _69
REMARK   21  A    between atoms: _69  and  _70
REMARK   22  A    between atoms: _69  and  _72
REMARK   23  A    between atoms: _72  and  _73
REMARK   24  A    between atoms: _78  and  _80
REMARK   25  A    between atoms: _80  and  _81
REMARK   26  A    between atoms: _80  and  _83
REMARK   27  A    between atoms: _83  and  _84
REMARK   28  A    between atoms: _87  and  _89
REMARK   29  A    between atoms: _89  and  _90
REMARK   30  A    between atoms: _89  and  _96
REMARK   31  A    between atoms: _90  and  _91
REMARK   32  A    between atoms: _91  and  _92
REMARK   33  A    between atoms: _92  and  _93
REMARK   34  A    between atoms: _93  and  _94
REMARK   35  A    between atoms: _94  and  _98
REMARK   36  A    between atoms: _101  and  _103
REMARK   37  A    between atoms: _103  and  _104
REMARK   38  A    between atoms: _103  and  _106
REMARK   39  A    between atoms: _106  and  _107
REMARK   40  A    between atoms: _112  and  _113
REMARK   41  A    between atoms: _116  and  _117
REMARK   42  A    between atoms: _122  and  _124
REMARK   43  A    between atoms: _124  and  _125
REMARK   44  A    between atoms: _124  and  _127
REMARK   45  A    between atoms: _127  and  _128
REMARK   46  A    between atoms: _129  and  ZN_311
REMARK   47  A    between atoms: _133  and  _135
REMARK   48  A    between atoms: _135  and  _136
REMARK   49  A    between atoms: _135  and  _138
REMARK   50  A    between atoms: _138  and  _139
REMARK   51  A    between atoms: _139  and  _140
REMARK   52  A    between atoms: _143  and  _145
REMARK   53  A    between atoms: _145  and  _146
REMARK   54  A    between atoms: _145  and  _148
REMARK   55  A    between atoms: _148  and  _149
REMARK   56  A    between atoms: _153  and  ZN_311
REMARK   57  A    between atoms: _154  and  _156
REMARK   58  A    between atoms: _156  and  _157
REMARK   59  A    between atoms: _156  and  _159
REMARK   60  A    between atoms: _159  and  _160
REMARK   61  A    between atoms: _160  and  _161
REMARK   62  A    between atoms: _166  and  _168
REMARK   63  A    between atoms: _168  and  _169
REMARK   64  A    between atoms: _168  and  _171
REMARK   65  A    between atoms: _171  and  _172
REMARK   66  A    between atoms: _177  and  _179
REMARK   67  A    between atoms: _179  and  _180
REMARK   68  A    between atoms: _179  and  _182
REMARK   69  A    between atoms: _182  and  _183
REMARK   70  A    between atoms: _186  and  _188
REMARK   71  A    between atoms: _188  and  _189
REMARK   72  A    between atoms: _188  and  _191
REMARK   73  A    between atoms: _191  and  _192
REMARK   74  A    between atoms: _197  and  _198
REMARK   75  A    between atoms: _200  and  _202
REMARK   76  A    between atoms: _202  and  _203
REMARK   77  A    between atoms: _202  and  _205
REMARK   78  A    between atoms: _207  and  _209
REMARK   79  A    between atoms: _209  and  _210
REMARK   80  A    between atoms: _209  and  _212
REMARK   81  A    between atoms: _212  and  _213
REMARK   82  A    between atoms: _217  and  _218
REMARK   83  A    between atoms: _223  and  _225
REMARK   84  A    between atoms: _225  and  _226
REMARK   85  A    between atoms: _225  and  _228
REMARK   86  A    between atoms: _228  and  _229
REMARK   87  A    between atoms: _232  and  _234
REMARK   88  A    between atoms: _234  and  _235
REMARK   89  A    between atoms: _234  and  _237
REMARK   90  A    between atoms: _237  and  _238
REMARK   91  A    between atoms: _238  and  _239
REMARK   92  A    between atoms: _239  and  ZN_312
REMARK   93  A    between atoms: _241  and  _243
REMARK   94  A    between atoms: _243  and  _244
REMARK   95  A    between atoms: _243  and  _246
REMARK   96  A    between atoms: _246  and  _247
REMARK   97  A    between atoms: _249  and  _251
REMARK   98  A    between atoms: _251  and  _252
REMARK   99  A    between atoms: _256  and  _257
REMARK  100  A    between atoms: _262  and  _264
REMARK  101  A    between atoms: _264  and  _265
REMARK  102  A    between atoms: _264  and  _267
REMARK  103  A    between atoms: _267  and  _268
REMARK  104  A    between atoms: _273  and  _275
REMARK  105  A    between atoms: _275  and  _276
REMARK  106  A    between atoms: _275  and  _278
REMARK  107  A    between atoms: _278  and  _279
REMARK  108  A    between atoms: _279  and  _280
REMARK  109  A    between atoms: _280  and  _281
REMARK  110  A    between atoms: _281  and  _282
REMARK  111  A    between atoms: _286  and  _288
REMARK  112  A    between atoms: _288  and  _289
REMARK  113  A    between atoms: _288  and  _291
REMARK  114  A    between atoms: _293  and  _295
REMARK  115  A    between atoms: _295  and  _296
REMARK  116  A    between atoms: _299  and  _301
REMARK  117  A    between atoms: _301  and  _302
REMARK  118  A    between atoms: _304  and  _306
REMARK  119  A    between atoms: _306  and  _307
REMARK  120  A    between atoms: _306  and  _309
REMARK                            x       y       z     vdW  Elec       q    Type
REMARK                         _______ _______ _______ _____ _____    ______ ____
ROOT
ATOM      1  O   HOH     1      17.820  40.628  74.967  0.00  0.00    +0.000 OA
ENDROOT
TORSDOF 0
REMARK  Name = ../refined-set-2016/1xge/1xge_pocket.pdb
REMARK  120 active torsions:
REMARK  status: ('A' for Active; 'I' for Inactive)
REMARK    1  A    between atoms: _1  and  _3
REMARK    2  A    between atoms: _14  and  _17
REMARK    3  A    between atoms: _17  and  _18
REMARK    4  A    between atoms: _23  and  _24
REMARK    5  A    between atoms: _32  and  _34
REMARK    6  A    between atoms: _34  and  _35
REMARK    7  A    between atoms: _34  and  _37
REMARK    8  A    between atoms: _37  and  _38
REMARK    9  A    between atoms: _41  and  _43
REMARK   10  A    between atoms: _43  and  _44
REMARK   11  A    between atoms: _43  and  _46
REMARK   12  A    between atoms: _46  and  _47
REMARK   13  A    between atoms: _47  and  _48
REMARK   14  A    between atoms: _48  and  _49
REMARK   15  A    between atoms: _58  and  _60
REMARK   16  A    between atoms: _60  and  _61
REMARK   17  A    between atoms: _60  and  _63
REMARK   18  A    between atoms: _63  and  _64
REMARK   19  A    between atoms: _64  and  _65
REMARK   20  A    between atoms: _67  and  _69
REMARK   21  A    between atoms: _69  and  _70
REMARK   22  A    between atoms: _69  and  _72
REMARK   23  A    between atoms: _72  and  _73
REMARK   24  A    between atoms: _78  and  _80
REMARK   25  A    between atoms: _80  and  _81
REMARK   26  A    between atoms: _80  and  _83
REMARK   27  A    between atoms: _83  and  _84
REMARK   28  A    between atoms: _87  and  _89
REMARK   29  A    between atoms: _89  and  _90
REMARK   30  A    between atoms: _89  and  _96
REMARK   31  A    between atoms: _90  and  _91
REMARK   32  A    between atoms: _91  and  _92
REMARK   33  A    between atoms: _92  and  _93
REMARK   34  A    between atoms: _93  and  _94
REMARK   35  A    between atoms: _94  and  _98
REMARK   36  A    between atoms: _101  and  _103
REMARK   37  A    between atoms: _103  and  _104
REMARK   38  A    between atoms: _103  and  _106
REMARK   39  A    between atoms: _106  and  _107
REMARK   40  A    between atoms: _112  and  _113
REMARK   41  A    between atoms: _116  and  _117
REMARK   42  A    between atoms: _122  and  _124
REMARK   43  A    between atoms: _124  and  _125
REMARK   44  A    between atoms: _124  and  _127
REMARK   45  A    between atoms: _127  and  _128
REMARK   46  A    between atoms: _129  and  ZN_311
REMARK   47  A    between atoms: _133  and  _135
REMARK   48  A    between atoms: _135  and  _136
REMARK   49  A    between atoms: _135  and  _138
REMARK   50  A    between atoms: _138  and  _139
REMARK   51  A    between atoms: _139  and  _140
REMARK   52  A    between atoms: _143  and  _145
REMARK   53  A    between atoms: _145  and  _146
REMARK   54  A    between atoms: _145  and  _148
REMARK   55  A    between atoms: _148  and  _149
REMARK   56  A    between atoms: _153  and  ZN_311
REMARK   57  A    between atoms: _154  and  _156
REMARK   58  A    between atoms: _156  and  _157
REMARK   59  A    between atoms: _156  and  _159
REMARK   60  A    between atoms: _159  and  _160
REMARK   61  A    between atoms: _160  and  _161
REMARK   62  A    between atoms: _166  and  _168
REMARK   63  A    between atoms: _168  and  _169
REMARK   64  A    between atoms: _168  and  _171
REMARK   65  A    between atoms: _171  and  _172
REMARK   66  A    between atoms: _177  and  _179
REMARK   67  A    between atoms: _179  and  _180
REMARK   68  A    between atoms: _179  and  _182
REMARK   69  A    between atoms: _182  and  _183
REMARK   70  A    between atoms: _186  and  _188
REMARK   71  A    between atoms: _188  and  _189
REMARK   72  A    between atoms: _188  and  _191
REMARK   73  A    between atoms: _191  and  _192
REMARK   74  A    between atoms: _197  and  _198
REMARK   75  A    between atoms: _200  and  _202
REMARK   76  A    between atoms: _202  and  _203
REMARK   77  A    between atoms: _202  and  _205
REMARK   78  A    between atoms: _207  and  _209
REMARK   79  A    between atoms: _209  and  _210
REMARK   80  A    between atoms: _209  and  _212
REMARK   81  A    between atoms: _212  and  _213
REMARK   82  A    between atoms: _217  and  _218
REMARK   83  A    between atoms: _223  and  _225
REMARK   84  A    between atoms: _225  and  _226
REMARK   85  A    between atoms: _225  and  _228
REMARK   86  A    between atoms: _228  and  _229
REMARK   87  A    between atoms: _232  and  _234
REMARK   88  A    between atoms: _234  and  _235
REMARK   89  A    between atoms: _234  and  _237
REMARK   90  A    between atoms: _237  and  _238
REMARK   91  A    between atoms: _238  and  _239
REMARK   92  A    between atoms: _239  and  ZN_312
REMARK   93  A    between atoms: _241  and  _243
REMARK   94  A    between atoms: _243  and  _244
REMARK   95  A    between atoms: _243  and  _246
REMARK   96  A    between atoms: _246  and  _247
REMARK   97  A    between atoms: _249  and  _251
REMARK   98  A    between atoms: _251  and  _252
REMARK   99  A    between atoms: _256  and  _257
REMARK  100  A    between atoms: _262  and  _264
REMARK  101  A    between atoms: _264  and  _265
REMARK  102  A    between atoms: _264  and  _267
REMARK  103  A    between atoms: _267  and  _268
REMARK  104  A    between atoms: _273  and  _275
REMARK  105  A    between atoms: _275  and  _276
REMARK  106  A    between atoms: _275  and  _278
REMARK  107  A    between atoms: _278  and  _279
REMARK  108  A    between atoms: _279  and  _280
REMARK  109  A    between atoms: _280  and  _281
REMARK  110  A    between atoms: _281  and  _282
REMARK  111  A    between atoms: _286  and  _288
REMARK  112  A    between atoms: _288  and  _289
REMARK  113  A    between atoms: _288  and  _291
REMARK  114  A    between atoms: _293  and  _295
REMARK  115  A    between atoms: _295  and  _296
REMARK  116  A    between atoms: _299  and  _301
REMARK  117  A    between atoms: _301  and  _302
REMARK  118  A    between atoms: _304  and  _306
REMARK  119  A    between atoms: _306  and  _307
REMARK  120  A    between atoms: _306  and  _309
REMARK                            x       y       z     vdW  Elec       q    Type
REMARK                         _______ _______ _______ _____ _____    ______ ____
ROOT
ATOM      1  O   HOH     1      26.143  47.811  75.008  0.00  0.00    +0.000 OA
ENDROOT
TORSDOF 0
REMARK  Name = ../refined-set-2016/1xge/1xge_pocket.pdb
REMARK  120 active torsions:
REMARK  status: ('A' for Active; 'I' for Inactive)
REMARK    1  A    between atoms: _1  and  _3
REMARK    2  A    between atoms: _14  and  _17
REMARK    3  A    between atoms: _17  and  _18
REMARK    4  A    between atoms: _23  and  _24
REMARK    5  A    between atoms: _32  and  _34
REMARK    6  A    between atoms: _34  and  _35
REMARK    7  A    between atoms: _34  and  _37
REMARK    8  A    between atoms: _37  and  _38
REMARK    9  A    between atoms: _41  and  _43
REMARK   10  A    between atoms: _43  and  _44
REMARK   11  A    between atoms: _43  and  _46
REMARK   12  A    between atoms: _46  and  _47
REMARK   13  A    between atoms: _47  and  _48
REMARK   14  A    between atoms: _48  and  _49
REMARK   15  A    between atoms: _58  and  _60
REMARK   16  A    between atoms: _60  and  _61
REMARK   17  A    between atoms: _60  and  _63
REMARK   18  A    between atoms: _63  and  _64
REMARK   19  A    between atoms: _64  and  _65
REMARK   20  A    between atoms: _67  and  _69
REMARK   21  A    between atoms: _69  and  _70
REMARK   22  A    between atoms: _69  and  _72
REMARK   23  A    between atoms: _72  and  _73
REMARK   24  A    between atoms: _78  and  _80
REMARK   25  A    between atoms: _80  and  _81
REMARK   26  A    between atoms: _80  and  _83
REMARK   27  A    between atoms: _83  and  _84
REMARK   28  A    between atoms: _87  and  _89
REMARK   29  A    between atoms: _89  and  _90
REMARK   30  A    between atoms: _89  and  _96
REMARK   31  A    between atoms: _90  and  _91
REMARK   32  A    between atoms: _91  and  _92
REMARK   33  A    between atoms: _92  and  _93
REMARK   34  A    between atoms: _93  and  _94
REMARK   35  A    between atoms: _94  and  _98
REMARK   36  A    between atoms: _101  and  _103
REMARK   37  A    between atoms: _103  and  _104
REMARK   38  A    between atoms: _103  and  _106
REMARK   39  A    between atoms: _106  and  _107
REMARK   40  A    between atoms: _112  and  _113
REMARK   41  A    between atoms: _116  and  _117
REMARK   42  A    between atoms: _122  and  _124
REMARK   43  A    between atoms: _124  and  _125
REMARK   44  A    between atoms: _124  and  _127
REMARK   45  A    between atoms: _127  and  _128
REMARK   46  A    between atoms: _129  and  ZN_311
REMARK   47  A    between atoms: _133  and  _135
REMARK   48  A    between atoms: _135  and  _136
REMARK   49  A    between atoms: _135  and  _138
REMARK   50  A    between atoms: _138  and  _139
REMARK   51  A    between atoms: _139  and  _140
REMARK   52  A    between atoms: _143  and  _145
REMARK   53  A    between atoms: _145  and  _146
REMARK   54  A    between atoms: _145  and  _148
REMARK   55  A    between atoms: _148  and  _149
REMARK   56  A    between atoms: _153  and  ZN_311
REMARK   57  A    between atoms: _154  and  _156
REMARK   58  A    between atoms: _156  and  _157
REMARK   59  A    between atoms: _156  and  _159
REMARK   60  A    between atoms: _159  and  _160
REMARK   61  A    between atoms: _160  and  _161
REMARK   62  A    between atoms: _166  and  _168
REMARK   63  A    between atoms: _168  and  _169
REMARK   64  A    between atoms: _168  and  _171
REMARK   65  A    between atoms: _171  and  _172
REMARK   66  A    between atoms: _177  and  _179
REMARK   67  A    between atoms: _179  and  _180
REMARK   68  A    between atoms: _179  and  _182
REMARK   69  A    between atoms: _182  and  _183
REMARK   70  A    between atoms: _186  and  _188
REMARK   71  A    between atoms: _188  and  _189
REMARK   72  A    between atoms: _188  and  _191
REMARK   73  A    between atoms: _191  and  _192
REMARK   74  A    between atoms: _197  and  _198
REMARK   75  A    between atoms: _200  and  _202
REMARK   76  A    between atoms: _202  and  _203
REMARK   77  A    between atoms: _202  and  _205
REMARK   78  A    between atoms: _207  and  _209
REMARK   79  A    between atoms: _209  and  _210
REMARK   80  A    between atoms: _209  and  _212
REMARK   81  A    between atoms: _212  and  _213
REMARK   82  A    between atoms: _217  and  _218
REMARK   83  A    between atoms: _223  and  _225
REMARK   84  A    between atoms: _225  and  _226
REMARK   85  A    between atoms: _225  and  _228
REMARK   86  A    between atoms: _228  and  _229
REMARK   87  A    between atoms: _232  and  _234
REMARK   88  A    between atoms: _234  and  _235
REMARK   89  A    between atoms: _234  and  _237
REMARK   90  A    between atoms: _237  and  _238
REMARK   91  A    between atoms: _238  and  _239
REMARK   92  A    between atoms: _239  and  ZN_312
REMARK   93  A    between atoms: _241  and  _243
REMARK   94  A    between atoms: _243  and  _244
REMARK   95  A    between atoms: _243  and  _246
REMARK   96  A    between atoms: _246  and  _247
REMARK   97  A    between atoms: _249  and  _251
REMARK   98  A    between atoms: _251  and  _252
REMARK   99  A    between atoms: _256  and  _257
REMARK  100  A    between atoms: _262  and  _264
REMARK  101  A    between atoms: _264  and  _265
REMARK  102  A    between atoms: _264  and  _267
REMARK  103  A    between atoms: _267  and  _268
REMARK  104  A    between atoms: _273  and  _275
REMARK  105  A    between atoms: _275  and  _276
REMARK  106  A    between atoms: _275  and  _278
REMARK  107  A    between atoms: _278  and  _279
REMARK  108  A    between atoms: _279  and  _280
REMARK  109  A    between atoms: _280  and  _281
REMARK  110  A    between atoms: _281  and  _282
REMARK  111  A    between atoms: _286  and  _288
REMARK  112  A    between atoms: _288  and  _289
REMARK  113  A    between atoms: _288  and  _291
REMARK  114  A    between atoms: _293  and  _295
REMARK  115  A    between atoms: _295  and  _296
REMARK  116  A    between atoms: _299  and  _301
REMARK  117  A    between atoms: _301  and  _302
REMARK  118  A    between atoms: _304  and  _306
REMARK  119  A    between atoms: _306  and  _307
REMARK  120  A    between atoms: _306  and  _309
REMARK                            x       y       z     vdW  Elec       q    Type
REMARK                         _______ _______ _______ _____ _____    ______ ____
ROOT
ATOM      1  O   HOH     1      23.706  50.087  71.463  0.00  0.00    +0.000 OA
ENDROOT
TORSDOF 0
REMARK  Name = ../refined-set-2016/1xge/1xge_pocket.pdb
REMARK  120 active torsions:
REMARK  status: ('A' for Active; 'I' for Inactive)
REMARK    1  A    between atoms: _1  and  _3
REMARK    2  A    between atoms: _14  and  _17
REMARK    3  A    between atoms: _17  and  _18
REMARK    4  A    between atoms: _23  and  _24
REMARK    5  A    between atoms: _32  and  _34
REMARK    6  A    between atoms: _34  and  _35
REMARK    7  A    between atoms: _34  and  _37
REMARK    8  A    between atoms: _37  and  _38
REMARK    9  A    between atoms: _41  and  _43
REMARK   10  A    between atoms: _43  and  _44
REMARK   11  A    between atoms: _43  and  _46
REMARK   12  A    between atoms: _46  and  _47
REMARK   13  A    between atoms: _47  and  _48
REMARK   14  A    between atoms: _48  and  _49
REMARK   15  A    between atoms: _58  and  _60
REMARK   16  A    between atoms: _60  and  _61
REMARK   17  A    between atoms: _60  and  _63
REMARK   18  A    between atoms: _63  and  _64
REMARK   19  A    between atoms: _64  and  _65
REMARK   20  A    between atoms: _67  and  _69
REMARK   21  A    between atoms: _69  and  _70
REMARK   22  A    between atoms: _69  and  _72
REMARK   23  A    between atoms: _72  and  _73
REMARK   24  A    between atoms: _78  and  _80
REMARK   25  A    between atoms: _80  and  _81
REMARK   26  A    between atoms: _80  and  _83
REMARK   27  A    between atoms: _83  and  _84
REMARK   28  A    between atoms: _87  and  _89
REMARK   29  A    between atoms: _89  and  _90
REMARK   30  A    between atoms: _89  and  _96
REMARK   31  A    between atoms: _90  and  _91
REMARK   32  A    between atoms: _91  and  _92
REMARK   33  A    between atoms: _92  and  _93
REMARK   34  A    between atoms: _93  and  _94
REMARK   35  A    between atoms: _94  and  _98
REMARK   36  A    between atoms: _101  and  _103
REMARK   37  A    between atoms: _103  and  _104
REMARK   38  A    between atoms: _103  and  _106
REMARK   39  A    between atoms: _106  and  _107
REMARK   40  A    between atoms: _112  and  _113
REMARK   41  A    between atoms: _116  and  _117
REMARK   42  A    between atoms: _122  and  _124
REMARK   43  A    between atoms: _124  and  _125
REMARK   44  A    between atoms: _124  and  _127
REMARK   45  A    between atoms: _127  and  _128
REMARK   46  A    between atoms: _129  and  ZN_311
REMARK   47  A    between atoms: _133  and  _135
REMARK   48  A    between atoms: _135  and  _136
REMARK   49  A    between atoms: _135  and  _138
REMARK   50  A    between atoms: _138  and  _139
REMARK   51  A    between atoms: _139  and  _140
REMARK   52  A    between atoms: _143  and  _145
REMARK   53  A    between atoms: _145  and  _146
REMARK   54  A    between atoms: _145  and  _148
REMARK   55  A    between atoms: _148  and  _149
REMARK   56  A    between atoms: _153  and  ZN_311
REMARK   57  A    between atoms: _154  and  _156
REMARK   58  A    between atoms: _156  and  _157
REMARK   59  A    between atoms: _156  and  _159
REMARK   60  A    between atoms: _159  and  _160
REMARK   61  A    between atoms: _160  and  _161
REMARK   62  A    between atoms: _166  and  _168
REMARK   63  A    between atoms: _168  and  _169
REMARK   64  A    between atoms: _168  and  _171
REMARK   65  A    between atoms: _171  and  _172
REMARK   66  A    between atoms: _177  and  _179
REMARK   67  A    between atoms: _179  and  _180
REMARK   68  A    between atoms: _179  and  _182
REMARK   69  A    between atoms: _182  and  _183
REMARK   70  A    between atoms: _186  and  _188
REMARK   71  A    between atoms: _188  and  _189
REMARK   72  A    between atoms: _188  and  _191
REMARK   73  A    between atoms: _191  and  _192
REMARK   74  A    between atoms: _197  and  _198
REMARK   75  A    between atoms: _200  and  _202
REMARK   76  A    between atoms: _202  and  _203
REMARK   77  A    between atoms: _202  and  _205
REMARK   78  A    between atoms: _207  and  _209
REMARK   79  A    between atoms: _209  and  _210
REMARK   80  A    between atoms: _209  and  _212
REMARK   81  A    between atoms: _212  and  _213
REMARK   82  A    between atoms: _217  and  _218
REMARK   83  A    between atoms: _223  and  _225
REMARK   84  A    between atoms: _225  and  _226
REMARK   85  A    between atoms: _225  and  _228
REMARK   86  A    between atoms: _228  and  _229
REMARK   87  A    between atoms: _232  and  _234
REMARK   88  A    between atoms: _234  and  _235
REMARK   89  A    between atoms: _234  and  _237
REMARK   90  A    between atoms: _237  and  _238
REMARK   91  A    between atoms: _238  and  _239
REMARK   92  A    between atoms: _239  and  ZN_312
REMARK   93  A    between atoms: _241  and  _243
REMARK   94  A    between atoms: _243  and  _244
REMARK   95  A    between atoms: _243  and  _246
REMARK   96  A    between atoms: _246  and  _247
REMARK   97  A    between atoms: _249  and  _251
REMARK   98  A    between atoms: _251  and  _252
REMARK   99  A    between atoms: _256  and  _257
REMARK  100  A    between atoms: _262  and  _264
REMARK  101  A    between atoms: _264  and  _265
REMARK  102  A    between atoms: _264  and  _267
REMARK  103  A    between atoms: _267  and  _268
REMARK  104  A    between atoms: _273  and  _275
REMARK  105  A    between atoms: _275  and  _276
REMARK  106  A    between atoms: _275  and  _278
REMARK  107  A    between atoms: _278  and  _279
REMARK  108  A    between atoms: _279  and  _280
REMARK  109  A    between atoms: _280  and  _281
REMARK  110  A    between atoms: _281  and  _282
REMARK  111  A    between atoms: _286  and  _288
REMARK  112  A    between atoms: _288  and  _289
REMARK  113  A    between atoms: _288  and  _291
REMARK  114  A    between atoms: _293  and  _295
REMARK  115  A    between atoms: _295  and  _296
REMARK  116  A    between atoms: _299  and  _301
REMARK  117  A    between atoms: _301  and  _302
REMARK  118  A    between atoms: _304  and  _306
REMARK  119  A    between atoms: _306  and  _307
REMARK  120  A    between atoms: _306  and  _309
REMARK                            x       y       z     vdW  Elec       q    Type
REMARK                         _______ _______ _______ _____ _____    ______ ____
ROOT
ATOM      1  O   HOH     1      26.368  35.711  76.045  0.00  0.00    +0.000 OA
ENDROOT
TORSDOF 0
REMARK  Name = ../refined-set-2016/1xge/1xge_pocket.pdb
REMARK  120 active torsions:
REMARK  status: ('A' for Active; 'I' for Inactive)
REMARK    1  A    between atoms: _1  and  _3
REMARK    2  A    between atoms: _14  and  _17
REMARK    3  A    between atoms: _17  and  _18
REMARK    4  A    between atoms: _23  and  _24
REMARK    5  A    between atoms: _32  and  _34
REMARK    6  A    between atoms: _34  and  _35
REMARK    7  A    between atoms: _34  and  _37
REMARK    8  A    between atoms: _37  and  _38
REMARK    9  A    between atoms: _41  and  _43
REMARK   10  A    between atoms: _43  and  _44
REMARK   11  A    between atoms: _43  and  _46
REMARK   12  A    between atoms: _46  and  _47
REMARK   13  A    between atoms: _47  and  _48
REMARK   14  A    between atoms: _48  and  _49
REMARK   15  A    between atoms: _58  and  _60
REMARK   16  A    between atoms: _60  and  _61
REMARK   17  A    between atoms: _60  and  _63
REMARK   18  A    between atoms: _63  and  _64
REMARK   19  A    between atoms: _64  and  _65
REMARK   20  A    between atoms: _67  and  _69
REMARK   21  A    between atoms: _69  and  _70
REMARK   22  A    between atoms: _69  and  _72
REMARK   23  A    between atoms: _72  and  _73
REMARK   24  A    between atoms: _78  and  _80
REMARK   25  A    between atoms: _80  and  _81
REMARK   26  A    between atoms: _80  and  _83
REMARK   27  A    between atoms: _83  and  _84
REMARK   28  A    between atoms: _87  and  _89
REMARK   29  A    between atoms: _89  and  _90
REMARK   30  A    between atoms: _89  and  _96
REMARK   31  A    between atoms: _90  and  _91
REMARK   32  A    between atoms: _91  and  _92
REMARK   33  A    between atoms: _92  and  _93
REMARK   34  A    between atoms: _93  and  _94
REMARK   35  A    between atoms: _94  and  _98
REMARK   36  A    between atoms: _101  and  _103
REMARK   37  A    between atoms: _103  and  _104
REMARK   38  A    between atoms: _103  and  _106
REMARK   39  A    between atoms: _106  and  _107
REMARK   40  A    between atoms: _112  and  _113
REMARK   41  A    between atoms: _116  and  _117
REMARK   42  A    between atoms: _122  and  _124
REMARK   43  A    between atoms: _124  and  _125
REMARK   44  A    between atoms: _124  and  _127
REMARK   45  A    between atoms: _127  and  _128
REMARK   46  A    between atoms: _129  and  ZN_311
REMARK   47  A    between atoms: _133  and  _135
REMARK   48  A    between atoms: _135  and  _136
REMARK   49  A    between atoms: _135  and  _138
REMARK   50  A    between atoms: _138  and  _139
REMARK   51  A    between atoms: _139  and  _140
REMARK   52  A    between atoms: _143  and  _145
REMARK   53  A    between atoms: _145  and  _146
REMARK   54  A    between atoms: _145  and  _148
REMARK   55  A    between atoms: _148  and  _149
REMARK   56  A    between atoms: _153  and  ZN_311
REMARK   57  A    between atoms: _154  and  _156
REMARK   58  A    between atoms: _156  and  _157
REMARK   59  A    between atoms: _156  and  _159
REMARK   60  A    between atoms: _159  and  _160
REMARK   61  A    between atoms: _160  and  _161
REMARK   62  A    between atoms: _166  and  _168
REMARK   63  A    between atoms: _168  and  _169
REMARK   64  A    between atoms: _168  and  _171
REMARK   65  A    between atoms: _171  and  _172
REMARK   66  A    between atoms: _177  and  _179
REMARK   67  A    between atoms: _179  and  _180
REMARK   68  A    between atoms: _179  and  _182
REMARK   69  A    between atoms: _182  and  _183
REMARK   70  A    between atoms: _186  and  _188
REMARK   71  A    between atoms: _188  and  _189
REMARK   72  A    between atoms: _188  and  _191
REMARK   73  A    between atoms: _191  and  _192
REMARK   74  A    between atoms: _197  and  _198
REMARK   75  A    between atoms: _200  and  _202
REMARK   76  A    between atoms: _202  and  _203
REMARK   77  A    between atoms: _202  and  _205
REMARK   78  A    between atoms: _207  and  _209
REMARK   79  A    between atoms: _209  and  _210
REMARK   80  A    between atoms: _209  and  _212
REMARK   81  A    between atoms: _212  and  _213
REMARK   82  A    between atoms: _217  and  _218
REMARK   83  A    between atoms: _223  and  _225
REMARK   84  A    between atoms: _225  and  _226
REMARK   85  A    between atoms: _225  and  _228
REMARK   86  A    between atoms: _228  and  _229
REMARK   87  A    between atoms: _232  and  _234
REMARK   88  A    between atoms: _234  and  _235
REMARK   89  A    between atoms: _234  and  _237
REMARK   90  A    between atoms: _237  and  _238
REMARK   91  A    between atoms: _238  and  _239
REMARK   92  A    between atoms: _239  and  ZN_312
REMARK   93  A    between atoms: _241  and  _243
REMARK   94  A    between atoms: _243  and  _244
REMARK   95  A    between atoms: _243  and  _246
REMARK   96  A    between atoms: _246  and  _247
REMARK   97  A    between atoms: _249  and  _251
REMARK   98  A    between atoms: _251  and  _252
REMARK   99  A    between atoms: _256  and  _257
REMARK  100  A    between atoms: _262  and  _264
REMARK  101  A    between atoms: _264  and  _265
REMARK  102  A    between atoms: _264  and  _267
REMARK  103  A    between atoms: _267  and  _268
REMARK  104  A    between atoms: _273  and  _275
REMARK  105  A    between atoms: _275  and  _276
REMARK  106  A    between atoms: _275  and  _278
REMARK  107  A    between atoms: _278  and  _279
REMARK  108  A    between atoms: _279  and  _280
REMARK  109  A    between atoms: _280  and  _281
REMARK  110  A    between atoms: _281  and  _282
REMARK  111  A    between atoms: _286  and  _288
REMARK  112  A    between atoms: _288  and  _289
REMARK  113  A    between atoms: _288  and  _291
REMARK  114  A    between atoms: _293  and  _295
REMARK  115  A    between atoms: _295  and  _296
REMARK  116  A    between atoms: _299  and  _301
REMARK  117  A    between atoms: _301  and  _302
REMARK  118  A    between atoms: _304  and  _306
REMARK  119  A    between atoms: _306  and  _307
REMARK  120  A    between atoms: _306  and  _309
REMARK                            x       y       z     vdW  Elec       q    Type
REMARK                         _______ _______ _______ _____ _____    ______ ____
ROOT
ATOM      1  O   HOH     1      18.787  45.067  68.824  0.00  0.00    +0.000 OA
ENDROOT
TORSDOF 0
REMARK  Name = ../refined-set-2016/1xge/1xge_pocket.pdb
REMARK  120 active torsions:
REMARK  status: ('A' for Active; 'I' for Inactive)
REMARK    1  A    between atoms: _1  and  _3
REMARK    2  A    between atoms: _14  and  _17
REMARK    3  A    between atoms: _17  and  _18
REMARK    4  A    between atoms: _23  and  _24
REMARK    5  A    between atoms: _32  and  _34
REMARK    6  A    between atoms: _34  and  _35
REMARK    7  A    between atoms: _34  and  _37
REMARK    8  A    between atoms: _37  and  _38
REMARK    9  A    between atoms: _41  and  _43
REMARK   10  A    between atoms: _43  and  _44
REMARK   11  A    between atoms: _43  and  _46
REMARK   12  A    between atoms: _46  and  _47
REMARK   13  A    between atoms: _47  and  _48
REMARK   14  A    between atoms: _48  and  _49
REMARK   15  A    between atoms: _58  and  _60
REMARK   16  A    between atoms: _60  and  _61
REMARK   17  A    between atoms: _60  and  _63
REMARK   18  A    between atoms: _63  and  _64
REMARK   19  A    between atoms: _64  and  _65
REMARK   20  A    between atoms: _67  and  _69
REMARK   21  A    between atoms: _69  and  _70
REMARK   22  A    between atoms: _69  and  _72
REMARK   23  A    between atoms: _72  and  _73
REMARK   24  A    between atoms: _78  and  _80
REMARK   25  A    between atoms: _80  and  _81
REMARK   26  A    between atoms: _80  and  _83
REMARK   27  A    between atoms: _83  and  _84
REMARK   28  A    between atoms: _87  and  _89
REMARK   29  A    between atoms: _89  and  _90
REMARK   30  A    between atoms: _89  and  _96
REMARK   31  A    between atoms: _90  and  _91
REMARK   32  A    between atoms: _91  and  _92
REMARK   33  A    between atoms: _92  and  _93
REMARK   34  A    between atoms: _93  and  _94
REMARK   35  A    between atoms: _94  and  _98
REMARK   36  A    between atoms: _101  and  _103
REMARK   37  A    between atoms: _103  and  _104
REMARK   38  A    between atoms: _103  and  _106
REMARK   39  A    between atoms: _106  and  _107
REMARK   40  A    between atoms: _112  and  _113
REMARK   41  A    between atoms: _116  and  _117
REMARK   42  A    between atoms: _122  and  _124
REMARK   43  A    between atoms: _124  and  _125
REMARK   44  A    between atoms: _124  and  _127
REMARK   45  A    between atoms: _127  and  _128
REMARK   46  A    between atoms: _129  and  ZN_311
REMARK   47  A    between atoms: _133  and  _135
REMARK   48  A    between atoms: _135  and  _136
REMARK   49  A    between atoms: _135  and  _138
REMARK   50  A    between atoms: _138  and  _139
REMARK   51  A    between atoms: _139  and  _140
REMARK   52  A    between atoms: _143  and  _145
REMARK   53  A    between atoms: _145  and  _146
REMARK   54  A    between atoms: _145  and  _148
REMARK   55  A    between atoms: _148  and  _149
REMARK   56  A    between atoms: _153  and  ZN_311
REMARK   57  A    between atoms: _154  and  _156
REMARK   58  A    between atoms: _156  and  _157
REMARK   59  A    between atoms: _156  and  _159
REMARK   60  A    between atoms: _159  and  _160
REMARK   61  A    between atoms: _160  and  _161
REMARK   62  A    between atoms: _166  and  _168
REMARK   63  A    between atoms: _168  and  _169
REMARK   64  A    between atoms: _168  and  _171
REMARK   65  A    between atoms: _171  and  _172
REMARK   66  A    between atoms: _177  and  _179
REMARK   67  A    between atoms: _179  and  _180
REMARK   68  A    between atoms: _179  and  _182
REMARK   69  A    between atoms: _182  and  _183
REMARK   70  A    between atoms: _186  and  _188
REMARK   71  A    between atoms: _188  and  _189
REMARK   72  A    between atoms: _188  and  _191
REMARK   73  A    between atoms: _191  and  _192
REMARK   74  A    between atoms: _197  and  _198
REMARK   75  A    between atoms: _200  and  _202
REMARK   76  A    between atoms: _202  and  _203
REMARK   77  A    between atoms: _202  and  _205
REMARK   78  A    between atoms: _207  and  _209
REMARK   79  A    between atoms: _209  and  _210
REMARK   80  A    between atoms: _209  and  _212
REMARK   81  A    between atoms: _212  and  _213
REMARK   82  A    between atoms: _217  and  _218
REMARK   83  A    between atoms: _223  and  _225
REMARK   84  A    between atoms: _225  and  _226
REMARK   85  A    between atoms: _225  and  _228
REMARK   86  A    between atoms: _228  and  _229
REMARK   87  A    between atoms: _232  and  _234
REMARK   88  A    between atoms: _234  and  _235
REMARK   89  A    between atoms: _234  and  _237
REMARK   90  A    between atoms: _237  and  _238
REMARK   91  A    between atoms: _238  and  _239
REMARK   92  A    between atoms: _239  and  ZN_312
REMARK   93  A    between atoms: _241  and  _243
REMARK   94  A    between atoms: _243  and  _244
REMARK   95  A    between atoms: _243  and  _246
REMARK   96  A    between atoms: _246  and  _247
REMARK   97  A    between atoms: _249  and  _251
REMARK   98  A    between atoms: _251  and  _252
REMARK   99  A    between atoms: _256  and  _257
REMARK  100  A    between atoms: _262  and  _264
REMARK  101  A    between atoms: _264  and  _265
REMARK  102  A    between atoms: _264  and  _267
REMARK  103  A    between atoms: _267  and  _268
REMARK  104  A    between atoms: _273  and  _275
REMARK  105  A    between atoms: _275  and  _276
REMARK  106  A    between atoms: _275  and  _278
REMARK  107  A    between atoms: _278  and  _279
REMARK  108  A    between atoms: _279  and  _280
REMARK  109  A    between atoms: _280  and  _281
REMARK  110  A    between atoms: _281  and  _282
REMARK  111  A    between atoms: _286  and  _288
REMARK  112  A    between atoms: _288  and  _289
REMARK  113  A    between atoms: _288  and  _291
REMARK  114  A    between atoms: _293  and  _295
REMARK  115  A    between atoms: _295  and  _296
REMARK  116  A    between atoms: _299  and  _301
REMARK  117  A    between atoms: _301  and  _302
REMARK  118  A    between atoms: _304  and  _306
REMARK  119  A    between atoms: _306  and  _307
REMARK  120  A    between atoms: _306  and  _309
REMARK                            x       y       z     vdW  Elec       q    Type
REMARK                         _______ _______ _______ _____ _____    ______ ____
ROOT
ATOM      1  O   HOH     1      19.611  46.623  71.906  0.00  0.00    +0.000 OA
ENDROOT
TORSDOF 0
REMARK  Name = ../refined-set-2016/1xge/1xge_pocket.pdb
REMARK  120 active torsions:
REMARK  status: ('A' for Active; 'I' for Inactive)
REMARK    1  A    between atoms: _1  and  _3
REMARK    2  A    between atoms: _14  and  _17
REMARK    3  A    between atoms: _17  and  _18
REMARK    4  A    between atoms: _23  and  _24
REMARK    5  A    between atoms: _32  and  _34
REMARK    6  A    between atoms: _34  and  _35
REMARK    7  A    between atoms: _34  and  _37
REMARK    8  A    between atoms: _37  and  _38
REMARK    9  A    between atoms: _41  and  _43
REMARK   10  A    between atoms: _43  and  _44
REMARK   11  A    between atoms: _43  and  _46
REMARK   12  A    between atoms: _46  and  _47
REMARK   13  A    between atoms: _47  and  _48
REMARK   14  A    between atoms: _48  and  _49
REMARK   15  A    between atoms: _58  and  _60
REMARK   16  A    between atoms: _60  and  _61
REMARK   17  A    between atoms: _60  and  _63
REMARK   18  A    between atoms: _63  and  _64
REMARK   19  A    between atoms: _64  and  _65
REMARK   20  A    between atoms: _67  and  _69
REMARK   21  A    between atoms: _69  and  _70
REMARK   22  A    between atoms: _69  and  _72
REMARK   23  A    between atoms: _72  and  _73
REMARK   24  A    between atoms: _78  and  _80
REMARK   25  A    between atoms: _80  and  _81
REMARK   26  A    between atoms: _80  and  _83
REMARK   27  A    between atoms: _83  and  _84
REMARK   28  A    between atoms: _87  and  _89
REMARK   29  A    between atoms: _89  and  _90
REMARK   30  A    between atoms: _89  and  _96
REMARK   31  A    between atoms: _90  and  _91
REMARK   32  A    between atoms: _91  and  _92
REMARK   33  A    between atoms: _92  and  _93
REMARK   34  A    between atoms: _93  and  _94
REMARK   35  A    between atoms: _94  and  _98
REMARK   36  A    between atoms: _101  and  _103
REMARK   37  A    between atoms: _103  and  _104
REMARK   38  A    between atoms: _103  and  _106
REMARK   39  A    between atoms: _106  and  _107
REMARK   40  A    between atoms: _112  and  _113
REMARK   41  A    between atoms: _116  and  _117
REMARK   42  A    between atoms: _122  and  _124
REMARK   43  A    between atoms: _124  and  _125
REMARK   44  A    between atoms: _124  and  _127
REMARK   45  A    between atoms: _127  and  _128
REMARK   46  A    between atoms: _129  and  ZN_311
REMARK   47  A    between atoms: _133  and  _135
REMARK   48  A    between atoms: _135  and  _136
REMARK   49  A    between atoms: _135  and  _138
REMARK   50  A    between atoms: _138  and  _139
REMARK   51  A    between atoms: _139  and  _140
REMARK   52  A    between atoms: _143  and  _145
REMARK   53  A    between atoms: _145  and  _146
REMARK   54  A    between atoms: _145  and  _148
REMARK   55  A    between atoms: _148  and  _149
REMARK   56  A    between atoms: _153  and  ZN_311
REMARK   57  A    between atoms: _154  and  _156
REMARK   58  A    between atoms: _156  and  _157
REMARK   59  A    between atoms: _156  and  _159
REMARK   60  A    between atoms: _159  and  _160
REMARK   61  A    between atoms: _160  and  _161
REMARK   62  A    between atoms: _166  and  _168
REMARK   63  A    between atoms: _168  and  _169
REMARK   64  A    between atoms: _168  and  _171
REMARK   65  A    between atoms: _171  and  _172
REMARK   66  A    between atoms: _177  and  _179
REMARK   67  A    between atoms: _179  and  _180
REMARK   68  A    between atoms: _179  and  _182
REMARK   69  A    between atoms: _182  and  _183
REMARK   70  A    between atoms: _186  and  _188
REMARK   71  A    between atoms: _188  and  _189
REMARK   72  A    between atoms: _188  and  _191
REMARK   73  A    between atoms: _191  and  _192
REMARK   74  A    between atoms: _197  and  _198
REMARK   75  A    between atoms: _200  and  _202
REMARK   76  A    between atoms: _202  and  _203
REMARK   77  A    between atoms: _202  and  _205
REMARK   78  A    between atoms: _207  and  _209
REMARK   79  A    between atoms: _209  and  _210
REMARK   80  A    between atoms: _209  and  _212
REMARK   81  A    between atoms: _212  and  _213
REMARK   82  A    between atoms: _217  and  _218
REMARK   83  A    between atoms: _223  and  _225
REMARK   84  A    between atoms: _225  and  _226
REMARK   85  A    between atoms: _225  and  _228
REMARK   86  A    between atoms: _228  and  _229
REMARK   87  A    between atoms: _232  and  _234
REMARK   88  A    between atoms: _234  and  _235
REMARK   89  A    between atoms: _234  and  _237
REMARK   90  A    between atoms: _237  and  _238
REMARK   91  A    between atoms: _238  and  _239
REMARK   92  A    between atoms: _239  and  ZN_312
REMARK   93  A    between atoms: _241  and  _243
REMARK   94  A    between atoms: _243  and  _244
REMARK   95  A    between atoms: _243  and  _246
REMARK   96  A    between atoms: _246  and  _247
REMARK   97  A    between atoms: _249  and  _251
REMARK   98  A    between atoms: _251  and  _252
REMARK   99  A    between atoms: _256  and  _257
REMARK  100  A    between atoms: _262  and  _264
REMARK  101  A    between atoms: _264  and  _265
REMARK  102  A    between atoms: _264  and  _267
REMARK  103  A    between atoms: _267  and  _268
REMARK  104  A    between atoms: _273  and  _275
REMARK  105  A    between atoms: _275  and  _276
REMARK  106  A    between atoms: _275  and  _278
REMARK  107  A    between atoms: _278  and  _279
REMARK  108  A    between atoms: _279  and  _280
REMARK  109  A    between atoms: _280  and  _281
REMARK  110  A    between atoms: _281  and  _282
REMARK  111  A    between atoms: _286  and  _288
REMARK  112  A    between atoms: _288  and  _289
REMARK  113  A    between atoms: _288  and  _291
REMARK  114  A    between atoms: _293  and  _295
REMARK  115  A    between atoms: _295  and  _296
REMARK  116  A    between atoms: _299  and  _301
REMARK  117  A    between atoms: _301  and  _302
REMARK  118  A    between atoms: _304  and  _306
REMARK  119  A    between atoms: _306  and  _307
REMARK  120  A    between atoms: _306  and  _309
REMARK                            x       y       z     vdW  Elec       q    Type
REMARK                         _______ _______ _______ _____ _____    ______ ____
ROOT
ATOM      1  O   HOH     1      30.628  44.091  67.597  0.00  0.00    +0.000 OA
ENDROOT
TORSDOF 0
REMARK  Name = ../refined-set-2016/1xge/1xge_pocket.pdb
REMARK  120 active torsions:
REMARK  status: ('A' for Active; 'I' for Inactive)
REMARK    1  A    between atoms: _1  and  _3
REMARK    2  A    between atoms: _14  and  _17
REMARK    3  A    between atoms: _17  and  _18
REMARK    4  A    between atoms: _23  and  _24
REMARK    5  A    between atoms: _32  and  _34
REMARK    6  A    between atoms: _34  and  _35
REMARK    7  A    between atoms: _34  and  _37
REMARK    8  A    between atoms: _37  and  _38
REMARK    9  A    between atoms: _41  and  _43
REMARK   10  A    between atoms: _43  and  _44
REMARK   11  A    between atoms: _43  and  _46
REMARK   12  A    between atoms: _46  and  _47
REMARK   13  A    between atoms: _47  and  _48
REMARK   14  A    between atoms: _48  and  _49
REMARK   15  A    between atoms: _58  and  _60
REMARK   16  A    between atoms: _60  and  _61
REMARK   17  A    between atoms: _60  and  _63
REMARK   18  A    between atoms: _63  and  _64
REMARK   19  A    between atoms: _64  and  _65
REMARK   20  A    between atoms: _67  and  _69
REMARK   21  A    between atoms: _69  and  _70
REMARK   22  A    between atoms: _69  and  _72
REMARK   23  A    between atoms: _72  and  _73
REMARK   24  A    between atoms: _78  and  _80
REMARK   25  A    between atoms: _80  and  _81
REMARK   26  A    between atoms: _80  and  _83
REMARK   27  A    between atoms: _83  and  _84
REMARK   28  A    between atoms: _87  and  _89
REMARK   29  A    between atoms: _89  and  _90
REMARK   30  A    between atoms: _89  and  _96
REMARK   31  A    between atoms: _90  and  _91
REMARK   32  A    between atoms: _91  and  _92
REMARK   33  A    between atoms: _92  and  _93
REMARK   34  A    between atoms: _93  and  _94
REMARK   35  A    between atoms: _94  and  _98
REMARK   36  A    between atoms: _101  and  _103
REMARK   37  A    between atoms: _103  and  _104
REMARK   38  A    between atoms: _103  and  _106
REMARK   39  A    between atoms: _106  and  _107
REMARK   40  A    between atoms: _112  and  _113
REMARK   41  A    between atoms: _116  and  _117
REMARK   42  A    between atoms: _122  and  _124
REMARK   43  A    between atoms: _124  and  _125
REMARK   44  A    between atoms: _124  and  _127
REMARK   45  A    between atoms: _127  and  _128
REMARK   46  A    between atoms: _129  and  ZN_311
REMARK   47  A    between atoms: _133  and  _135
REMARK   48  A    between atoms: _135  and  _136
REMARK   49  A    between atoms: _135  and  _138
REMARK   50  A    between atoms: _138  and  _139
REMARK   51  A    between atoms: _139  and  _140
REMARK   52  A    between atoms: _143  and  _145
REMARK   53  A    between atoms: _145  and  _146
REMARK   54  A    between atoms: _145  and  _148
REMARK   55  A    between atoms: _148  and  _149
REMARK   56  A    between atoms: _153  and  ZN_311
REMARK   57  A    between atoms: _154  and  _156
REMARK   58  A    between atoms: _156  and  _157
REMARK   59  A    between atoms: _156  and  _159
REMARK   60  A    between atoms: _159  and  _160
REMARK   61  A    between atoms: _160  and  _161
REMARK   62  A    between atoms: _166  and  _168
REMARK   63  A    between atoms: _168  and  _169
REMARK   64  A    between atoms: _168  and  _171
REMARK   65  A    between atoms: _171  and  _172
REMARK   66  A    between atoms: _177  and  _179
REMARK   67  A    between atoms: _179  and  _180
REMARK   68  A    between atoms: _179  and  _182
REMARK   69  A    between atoms: _182  and  _183
REMARK   70  A    between atoms: _186  and  _188
REMARK   71  A    between atoms: _188  and  _189
REMARK   72  A    between atoms: _188  and  _191
REMARK   73  A    between atoms: _191  and  _192
REMARK   74  A    between atoms: _197  and  _198
REMARK   75  A    between atoms: _200  and  _202
REMARK   76  A    between atoms: _202  and  _203
REMARK   77  A    between atoms: _202  and  _205
REMARK   78  A    between atoms: _207  and  _209
REMARK   79  A    between atoms: _209  and  _210
REMARK   80  A    between atoms: _209  and  _212
REMARK   81  A    between atoms: _212  and  _213
REMARK   82  A    between atoms: _217  and  _218
REMARK   83  A    between atoms: _223  and  _225
REMARK   84  A    between atoms: _225  and  _226
REMARK   85  A    between atoms: _225  and  _228
REMARK   86  A    between atoms: _228  and  _229
REMARK   87  A    between atoms: _232  and  _234
REMARK   88  A    between atoms: _234  and  _235
REMARK   89  A    between atoms: _234  and  _237
REMARK   90  A    between atoms: _237  and  _238
REMARK   91  A    between atoms: _238  and  _239
REMARK   92  A    between atoms: _239  and  ZN_312
REMARK   93  A    between atoms: _241  and  _243
REMARK   94  A    between atoms: _243  and  _244
REMARK   95  A    between atoms: _243  and  _246
REMARK   96  A    between atoms: _246  and  _247
REMARK   97  A    between atoms: _249  and  _251
REMARK   98  A    between atoms: _251  and  _252
REMARK   99  A    between atoms: _256  and  _257
REMARK  100  A    between atoms: _262  and  _264
REMARK  101  A    between atoms: _264  and  _265
REMARK  102  A    between atoms: _264  and  _267
REMARK  103  A    between atoms: _267  and  _268
REMARK  104  A    between atoms: _273  and  _275
REMARK  105  A    between atoms: _275  and  _276
REMARK  106  A    between atoms: _275  and  _278
REMARK  107  A    between atoms: _278  and  _279
REMARK  108  A    between atoms: _279  and  _280
REMARK  109  A    between atoms: _280  and  _281
REMARK  110  A    between atoms: _281  and  _282
REMARK  111  A    between atoms: _286  and  _288
REMARK  112  A    between atoms: _288  and  _289
REMARK  113  A    between atoms: _288  and  _291
REMARK  114  A    between atoms: _293  and  _295
REMARK  115  A    between atoms: _295  and  _296
REMARK  116  A    between atoms: _299  and  _301
REMARK  117  A    between atoms: _301  and  _302
REMARK  118  A    between atoms: _304  and  _306
REMARK  119  A    between atoms: _306  and  _307
REMARK  120  A    between atoms: _306  and  _309
REMARK                            x       y       z     vdW  Elec       q    Type
REMARK                         _______ _______ _______ _____ _____    ______ ____
ROOT
ATOM      1  O   HOH     1      23.013  39.233  66.842  0.00  0.00    +0.000 OA
ENDROOT
TORSDOF 0
REMARK  Name = ../refined-set-2016/1xge/1xge_pocket.pdb
REMARK  120 active torsions:
REMARK  status: ('A' for Active; 'I' for Inactive)
REMARK    1  A    between atoms: _1  and  _3
REMARK    2  A    between atoms: _14  and  _17
REMARK    3  A    between atoms: _17  and  _18
REMARK    4  A    between atoms: _23  and  _24
REMARK    5  A    between atoms: _32  and  _34
REMARK    6  A    between atoms: _34  and  _35
REMARK    7  A    between atoms: _34  and  _37
REMARK    8  A    between atoms: _37  and  _38
REMARK    9  A    between atoms: _41  and  _43
REMARK   10  A    between atoms: _43  and  _44
REMARK   11  A    between atoms: _43  and  _46
REMARK   12  A    between atoms: _46  and  _47
REMARK   13  A    between atoms: _47  and  _48
REMARK   14  A    between atoms: _48  and  _49
REMARK   15  A    between atoms: _58  and  _60
REMARK   16  A    between atoms: _60  and  _61
REMARK   17  A    between atoms: _60  and  _63
REMARK   18  A    between atoms: _63  and  _64
REMARK   19  A    between atoms: _64  and  _65
REMARK   20  A    between atoms: _67  and  _69
REMARK   21  A    between atoms: _69  and  _70
REMARK   22  A    between atoms: _69  and  _72
REMARK   23  A    between atoms: _72  and  _73
REMARK   24  A    between atoms: _78  and  _80
REMARK   25  A    between atoms: _80  and  _81
REMARK   26  A    between atoms: _80  and  _83
REMARK   27  A    between atoms: _83  and  _84
REMARK   28  A    between atoms: _87  and  _89
REMARK   29  A    between atoms: _89  and  _90
REMARK   30  A    between atoms: _89  and  _96
REMARK   31  A    between atoms: _90  and  _91
REMARK   32  A    between atoms: _91  and  _92
REMARK   33  A    between atoms: _92  and  _93
REMARK   34  A    between atoms: _93  and  _94
REMARK   35  A    between atoms: _94  and  _98
REMARK   36  A    between atoms: _101  and  _103
REMARK   37  A    between atoms: _103  and  _104
REMARK   38  A    between atoms: _103  and  _106
REMARK   39  A    between atoms: _106  and  _107
REMARK   40  A    between atoms: _112  and  _113
REMARK   41  A    between atoms: _116  and  _117
REMARK   42  A    between atoms: _122  and  _124
REMARK   43  A    between atoms: _124  and  _125
REMARK   44  A    between atoms: _124  and  _127
REMARK   45  A    between atoms: _127  and  _128
REMARK   46  A    between atoms: _129  and  ZN_311
REMARK   47  A    between atoms: _133  and  _135
REMARK   48  A    between atoms: _135  and  _136
REMARK   49  A    between atoms: _135  and  _138
REMARK   50  A    between atoms: _138  and  _139
REMARK   51  A    between atoms: _139  and  _140
REMARK   52  A    between atoms: _143  and  _145
REMARK   53  A    between atoms: _145  and  _146
REMARK   54  A    between atoms: _145  and  _148
REMARK   55  A    between atoms: _148  and  _149
REMARK   56  A    between atoms: _153  and  ZN_311
REMARK   57  A    between atoms: _154  and  _156
REMARK   58  A    between atoms: _156  and  _157
REMARK   59  A    between atoms: _156  and  _159
REMARK   60  A    between atoms: _159  and  _160
REMARK   61  A    between atoms: _160  and  _161
REMARK   62  A    between atoms: _166  and  _168
REMARK   63  A    between atoms: _168  and  _169
REMARK   64  A    between atoms: _168  and  _171
REMARK   65  A    between atoms: _171  and  _172
REMARK   66  A    between atoms: _177  and  _179
REMARK   67  A    between atoms: _179  and  _180
REMARK   68  A    between atoms: _179  and  _182
REMARK   69  A    between atoms: _182  and  _183
REMARK   70  A    between atoms: _186  and  _188
REMARK   71  A    between atoms: _188  and  _189
REMARK   72  A    between atoms: _188  and  _191
REMARK   73  A    between atoms: _191  and  _192
REMARK   74  A    between atoms: _197  and  _198
REMARK   75  A    between atoms: _200  and  _202
REMARK   76  A    between atoms: _202  and  _203
REMARK   77  A    between atoms: _202  and  _205
REMARK   78  A    between atoms: _207  and  _209
REMARK   79  A    between atoms: _209  and  _210
REMARK   80  A    between atoms: _209  and  _212
REMARK   81  A    between atoms: _212  and  _213
REMARK   82  A    between atoms: _217  and  _218
REMARK   83  A    between atoms: _223  and  _225
REMARK   84  A    between atoms: _225  and  _226
REMARK   85  A    between atoms: _225  and  _228
REMARK   86  A    between atoms: _228  and  _229
REMARK   87  A    between atoms: _232  and  _234
REMARK   88  A    between atoms: _234  and  _235
REMARK   89  A    between atoms: _234  and  _237
REMARK   90  A    between atoms: _237  and  _238
REMARK   91  A    between atoms: _238  and  _239
REMARK   92  A    between atoms: _239  and  ZN_312
REMARK   93  A    between atoms: _241  and  _243
REMARK   94  A    between atoms: _243  and  _244
REMARK   95  A    between atoms: _243  and  _246
REMARK   96  A    between atoms: _246  and  _247
REMARK   97  A    between atoms: _249  and  _251
REMARK   98  A    between atoms: _251  and  _252
REMARK   99  A    between atoms: _256  and  _257
REMARK  100  A    between atoms: _262  and  _264
REMARK  101  A    between atoms: _264  and  _265
REMARK  102  A    between atoms: _264  and  _267
REMARK  103  A    between atoms: _267  and  _268
REMARK  104  A    between atoms: _273  and  _275
REMARK  105  A    between atoms: _275  and  _276
REMARK  106  A    between atoms: _275  and  _278
REMARK  107  A    between atoms: _278  and  _279
REMARK  108  A    between atoms: _279  and  _280
REMARK  109  A    between atoms: _280  and  _281
REMARK  110  A    between atoms: _281  and  _282
REMARK  111  A    between atoms: _286  and  _288
REMARK  112  A    between atoms: _288  and  _289
REMARK  113  A    between atoms: _288  and  _291
REMARK  114  A    between atoms: _293  and  _295
REMARK  115  A    between atoms: _295  and  _296
REMARK  116  A    between atoms: _299  and  _301
REMARK  117  A    between atoms: _301  and  _302
REMARK  118  A    between atoms: _304  and  _306
REMARK  119  A    between atoms: _306  and  _307
REMARK  120  A    between atoms: _306  and  _309
REMARK                            x       y       z     vdW  Elec       q    Type
REMARK                         _______ _______ _______ _____ _____    ______ ____
ROOT
ATOM      1  O   HOH     1      25.901  47.838  68.282  0.00  0.00    +0.000 OA
ENDROOT
TORSDOF 0
REMARK  Name = ../refined-set-2016/1xge/1xge_pocket.pdb
REMARK  120 active torsions:
REMARK  status: ('A' for Active; 'I' for Inactive)
REMARK    1  A    between atoms: _1  and  _3
REMARK    2  A    between atoms: _14  and  _17
REMARK    3  A    between atoms: _17  and  _18
REMARK    4  A    between atoms: _23  and  _24
REMARK    5  A    between atoms: _32  and  _34
REMARK    6  A    between atoms: _34  and  _35
REMARK    7  A    between atoms: _34  and  _37
REMARK    8  A    between atoms: _37  and  _38
REMARK    9  A    between atoms: _41  and  _43
REMARK   10  A    between atoms: _43  and  _44
REMARK   11  A    between atoms: _43  and  _46
REMARK   12  A    between atoms: _46  and  _47
REMARK   13  A    between atoms: _47  and  _48
REMARK   14  A    between atoms: _48  and  _49
REMARK   15  A    between atoms: _58  and  _60
REMARK   16  A    between atoms: _60  and  _61
REMARK   17  A    between atoms: _60  and  _63
REMARK   18  A    between atoms: _63  and  _64
REMARK   19  A    between atoms: _64  and  _65
REMARK   20  A    between atoms: _67  and  _69
REMARK   21  A    between atoms: _69  and  _70
REMARK   22  A    between atoms: _69  and  _72
REMARK   23  A    between atoms: _72  and  _73
REMARK   24  A    between atoms: _78  and  _80
REMARK   25  A    between atoms: _80  and  _81
REMARK   26  A    between atoms: _80  and  _83
REMARK   27  A    between atoms: _83  and  _84
REMARK   28  A    between atoms: _87  and  _89
REMARK   29  A    between atoms: _89  and  _90
REMARK   30  A    between atoms: _89  and  _96
REMARK   31  A    between atoms: _90  and  _91
REMARK   32  A    between atoms: _91  and  _92
REMARK   33  A    between atoms: _92  and  _93
REMARK   34  A    between atoms: _93  and  _94
REMARK   35  A    between atoms: _94  and  _98
REMARK   36  A    between atoms: _101  and  _103
REMARK   37  A    between atoms: _103  and  _104
REMARK   38  A    between atoms: _103  and  _106
REMARK   39  A    between atoms: _106  and  _107
REMARK   40  A    between atoms: _112  and  _113
REMARK   41  A    between atoms: _116  and  _117
REMARK   42  A    between atoms: _122  and  _124
REMARK   43  A    between atoms: _124  and  _125
REMARK   44  A    between atoms: _124  and  _127
REMARK   45  A    between atoms: _127  and  _128
REMARK   46  A    between atoms: _129  and  ZN_311
REMARK   47  A    between atoms: _133  and  _135
REMARK   48  A    between atoms: _135  and  _136
REMARK   49  A    between atoms: _135  and  _138
REMARK   50  A    between atoms: _138  and  _139
REMARK   51  A    between atoms: _139  and  _140
REMARK   52  A    between atoms: _143  and  _145
REMARK   53  A    between atoms: _145  and  _146
REMARK   54  A    between atoms: _145  and  _148
REMARK   55  A    between atoms: _148  and  _149
REMARK   56  A    between atoms: _153  and  ZN_311
REMARK   57  A    between atoms: _154  and  _156
REMARK   58  A    between atoms: _156  and  _157
REMARK   59  A    between atoms: _156  and  _159
REMARK   60  A    between atoms: _159  and  _160
REMARK   61  A    between atoms: _160  and  _161
REMARK   62  A    between atoms: _166  and  _168
REMARK   63  A    between atoms: _168  and  _169
REMARK   64  A    between atoms: _168  and  _171
REMARK   65  A    between atoms: _171  and  _172
REMARK   66  A    between atoms: _177  and  _179
REMARK   67  A    between atoms: _179  and  _180
REMARK   68  A    between atoms: _179  and  _182
REMARK   69  A    between atoms: _182  and  _183
REMARK   70  A    between atoms: _186  and  _188
REMARK   71  A    between atoms: _188  and  _189
REMARK   72  A    between atoms: _188  and  _191
REMARK   73  A    between atoms: _191  and  _192
REMARK   74  A    between atoms: _197  and  _198
REMARK   75  A    between atoms: _200  and  _202
REMARK   76  A    between atoms: _202  and  _203
REMARK   77  A    between atoms: _202  and  _205
REMARK   78  A    between atoms: _207  and  _209
REMARK   79  A    between atoms: _209  and  _210
REMARK   80  A    between atoms: _209  and  _212
REMARK   81  A    between atoms: _212  and  _213
REMARK   82  A    between atoms: _217  and  _218
REMARK   83  A    between atoms: _223  and  _225
REMARK   84  A    between atoms: _225  and  _226
REMARK   85  A    between atoms: _225  and  _228
REMARK   86  A    between atoms: _228  and  _229
REMARK   87  A    between atoms: _232  and  _234
REMARK   88  A    between atoms: _234  and  _235
REMARK   89  A    between atoms: _234  and  _237
REMARK   90  A    between atoms: _237  and  _238
REMARK   91  A    between atoms: _238  and  _239
REMARK   92  A    between atoms: _239  and  ZN_312
REMARK   93  A    between atoms: _241  and  _243
REMARK   94  A    between atoms: _243  and  _244
REMARK   95  A    between atoms: _243  and  _246
REMARK   96  A    between atoms: _246  and  _247
REMARK   97  A    between atoms: _249  and  _251
REMARK   98  A    between atoms: _251  and  _252
REMARK   99  A    between atoms: _256  and  _257
REMARK  100  A    between atoms: _262  and  _264
REMARK  101  A    between atoms: _264  and  _265
REMARK  102  A    between atoms: _264  and  _267
REMARK  103  A    between atoms: _267  and  _268
REMARK  104  A    between atoms: _273  and  _275
REMARK  105  A    between atoms: _275  and  _276
REMARK  106  A    between atoms: _275  and  _278
REMARK  107  A    between atoms: _278  and  _279
REMARK  108  A    between atoms: _279  and  _280
REMARK  109  A    between atoms: _280  and  _281
REMARK  110  A    between atoms: _281  and  _282
REMARK  111  A    between atoms: _286  and  _288
REMARK  112  A    between atoms: _288  and  _289
REMARK  113  A    between atoms: _288  and  _291
REMARK  114  A    between atoms: _293  and  _295
REMARK  115  A    between atoms: _295  and  _296
REMARK  116  A    between atoms: _299  and  _301
REMARK  117  A    between atoms: _301  and  _302
REMARK  118  A    between atoms: _304  and  _306
REMARK  119  A    between atoms: _306  and  _307
REMARK  120  A    between atoms: _306  and  _309
REMARK                            x       y       z     vdW  Elec       q    Type
REMARK                         _______ _______ _______ _____ _____    ______ ____
ROOT
ATOM      1  O   HOH     1      28.977  43.369  69.012  0.00  0.00    +0.000 OA
ENDROOT
TORSDOF 0
REMARK  Name = ../refined-set-2016/1xge/1xge_pocket.pdb
REMARK  120 active torsions:
REMARK  status: ('A' for Active; 'I' for Inactive)
REMARK    1  A    between atoms: _1  and  _3
REMARK    2  A    between atoms: _14  and  _17
REMARK    3  A    between atoms: _17  and  _18
REMARK    4  A    between atoms: _23  and  _24
REMARK    5  A    between atoms: _32  and  _34
REMARK    6  A    between atoms: _34  and  _35
REMARK    7  A    between atoms: _34  and  _37
REMARK    8  A    between atoms: _37  and  _38
REMARK    9  A    between atoms: _41  and  _43
REMARK   10  A    between atoms: _43  and  _44
REMARK   11  A    between atoms: _43  and  _46
REMARK   12  A    between atoms: _46  and  _47
REMARK   13  A    between atoms: _47  and  _48
REMARK   14  A    between atoms: _48  and  _49
REMARK   15  A    between atoms: _58  and  _60
REMARK   16  A    between atoms: _60  and  _61
REMARK   17  A    between atoms: _60  and  _63
REMARK   18  A    between atoms: _63  and  _64
REMARK   19  A    between atoms: _64  and  _65
REMARK   20  A    between atoms: _67  and  _69
REMARK   21  A    between atoms: _69  and  _70
REMARK   22  A    between atoms: _69  and  _72
REMARK   23  A    between atoms: _72  and  _73
REMARK   24  A    between atoms: _78  and  _80
REMARK   25  A    between atoms: _80  and  _81
REMARK   26  A    between atoms: _80  and  _83
REMARK   27  A    between atoms: _83  and  _84
REMARK   28  A    between atoms: _87  and  _89
REMARK   29  A    between atoms: _89  and  _90
REMARK   30  A    between atoms: _89  and  _96
REMARK   31  A    between atoms: _90  and  _91
REMARK   32  A    between atoms: _91  and  _92
REMARK   33  A    between atoms: _92  and  _93
REMARK   34  A    between atoms: _93  and  _94
REMARK   35  A    between atoms: _94  and  _98
REMARK   36  A    between atoms: _101  and  _103
REMARK   37  A    between atoms: _103  and  _104
REMARK   38  A    between atoms: _103  and  _106
REMARK   39  A    between atoms: _106  and  _107
REMARK   40  A    between atoms: _112  and  _113
REMARK   41  A    between atoms: _116  and  _117
REMARK   42  A    between atoms: _122  and  _124
REMARK   43  A    between atoms: _124  and  _125
REMARK   44  A    between atoms: _124  and  _127
REMARK   45  A    between atoms: _127  and  _128
REMARK   46  A    between atoms: _129  and  ZN_311
REMARK   47  A    between atoms: _133  and  _135
REMARK   48  A    between atoms: _135  and  _136
REMARK   49  A    between atoms: _135  and  _138
REMARK   50  A    between atoms: _138  and  _139
REMARK   51  A    between atoms: _139  and  _140
REMARK   52  A    between atoms: _143  and  _145
REMARK   53  A    between atoms: _145  and  _146
REMARK   54  A    between atoms: _145  and  _148
REMARK   55  A    between atoms: _148  and  _149
REMARK   56  A    between atoms: _153  and  ZN_311
REMARK   57  A    between atoms: _154  and  _156
REMARK   58  A    between atoms: _156  and  _157
REMARK   59  A    between atoms: _156  and  _159
REMARK   60  A    between atoms: _159  and  _160
REMARK   61  A    between atoms: _160  and  _161
REMARK   62  A    between atoms: _166  and  _168
REMARK   63  A    between atoms: _168  and  _169
REMARK   64  A    between atoms: _168  and  _171
REMARK   65  A    between atoms: _171  and  _172
REMARK   66  A    between atoms: _177  and  _179
REMARK   67  A    between atoms: _179  and  _180
REMARK   68  A    between atoms: _179  and  _182
REMARK   69  A    between atoms: _182  and  _183
REMARK   70  A    between atoms: _186  and  _188
REMARK   71  A    between atoms: _188  and  _189
REMARK   72  A    between atoms: _188  and  _191
REMARK   73  A    between atoms: _191  and  _192
REMARK   74  A    between atoms: _197  and  _198
REMARK   75  A    between atoms: _200  and  _202
REMARK   76  A    between atoms: _202  and  _203
REMARK   77  A    between atoms: _202  and  _205
REMARK   78  A    between atoms: _207  and  _209
REMARK   79  A    between atoms: _209  and  _210
REMARK   80  A    between atoms: _209  and  _212
REMARK   81  A    between atoms: _212  and  _213
REMARK   82  A    between atoms: _217  and  _218
REMARK   83  A    between atoms: _223  and  _225
REMARK   84  A    between atoms: _225  and  _226
REMARK   85  A    between atoms: _225  and  _228
REMARK   86  A    between atoms: _228  and  _229
REMARK   87  A    between atoms: _232  and  _234
REMARK   88  A    between atoms: _234  and  _235
REMARK   89  A    between atoms: _234  and  _237
REMARK   90  A    between atoms: _237  and  _238
REMARK   91  A    between atoms: _238  and  _239
REMARK   92  A    between atoms: _239  and  ZN_312
REMARK   93  A    between atoms: _241  and  _243
REMARK   94  A    between atoms: _243  and  _244
REMARK   95  A    between atoms: _243  and  _246
REMARK   96  A    between atoms: _246  and  _247
REMARK   97  A    between atoms: _249  and  _251
REMARK   98  A    between atoms: _251  and  _252
REMARK   99  A    between atoms: _256  and  _257
REMARK  100  A    between atoms: _262  and  _264
REMARK  101  A    between atoms: _264  and  _265
REMARK  102  A    between atoms: _264  and  _267
REMARK  103  A    between atoms: _267  and  _268
REMARK  104  A    between atoms: _273  and  _275
REMARK  105  A    between atoms: _275  and  _276
REMARK  106  A    between atoms: _275  and  _278
REMARK  107  A    between atoms: _278  and  _279
REMARK  108  A    between atoms: _279  and  _280
REMARK  109  A    between atoms: _280  and  _281
REMARK  110  A    between atoms: _281  and  _282
REMARK  111  A    between atoms: _286  and  _288
REMARK  112  A    between atoms: _288  and  _289
REMARK  113  A    between atoms: _288  and  _291
REMARK  114  A    between atoms: _293  and  _295
REMARK  115  A    between atoms: _295  and  _296
REMARK  116  A    between atoms: _299  and  _301
REMARK  117  A    between atoms: _301  and  _302
REMARK  118  A    between atoms: _304  and  _306
REMARK  119  A    between atoms: _306  and  _307
REMARK  120  A    between atoms: _306  and  _309
REMARK                            x       y       z     vdW  Elec       q    Type
REMARK                         _______ _______ _______ _____ _____    ______ ____
ROOT
ATOM      1  O   HOH     1      28.630  45.974  67.052  0.00  0.00    +0.000 OA
ENDROOT
TORSDOF 0
REMARK  Name = ../refined-set-2016/1xge/1xge_pocket.pdb
REMARK  120 active torsions:
REMARK  status: ('A' for Active; 'I' for Inactive)
REMARK    1  A    between atoms: _1  and  _3
REMARK    2  A    between atoms: _14  and  _17
REMARK    3  A    between atoms: _17  and  _18
REMARK    4  A    between atoms: _23  and  _24
REMARK    5  A    between atoms: _32  and  _34
REMARK    6  A    between atoms: _34  and  _35
REMARK    7  A    between atoms: _34  and  _37
REMARK    8  A    between atoms: _37  and  _38
REMARK    9  A    between atoms: _41  and  _43
REMARK   10  A    between atoms: _43  and  _44
REMARK   11  A    between atoms: _43  and  _46
REMARK   12  A    between atoms: _46  and  _47
REMARK   13  A    between atoms: _47  and  _48
REMARK   14  A    between atoms: _48  and  _49
REMARK   15  A    between atoms: _58  and  _60
REMARK   16  A    between atoms: _60  and  _61
REMARK   17  A    between atoms: _60  and  _63
REMARK   18  A    between atoms: _63  and  _64
REMARK   19  A    between atoms: _64  and  _65
REMARK   20  A    between atoms: _67  and  _69
REMARK   21  A    between atoms: _69  and  _70
REMARK   22  A    between atoms: _69  and  _72
REMARK   23  A    between atoms: _72  and  _73
REMARK   24  A    between atoms: _78  and  _80
REMARK   25  A    between atoms: _80  and  _81
REMARK   26  A    between atoms: _80  and  _83
REMARK   27  A    between atoms: _83  and  _84
REMARK   28  A    between atoms: _87  and  _89
REMARK   29  A    between atoms: _89  and  _90
REMARK   30  A    between atoms: _89  and  _96
REMARK   31  A    between atoms: _90  and  _91
REMARK   32  A    between atoms: _91  and  _92
REMARK   33  A    between atoms: _92  and  _93
REMARK   34  A    between atoms: _93  and  _94
REMARK   35  A    between atoms: _94  and  _98
REMARK   36  A    between atoms: _101  and  _103
REMARK   37  A    between atoms: _103  and  _104
REMARK   38  A    between atoms: _103  and  _106
REMARK   39  A    between atoms: _106  and  _107
REMARK   40  A    between atoms: _112  and  _113
REMARK   41  A    between atoms: _116  and  _117
REMARK   42  A    between atoms: _122  and  _124
REMARK   43  A    between atoms: _124  and  _125
REMARK   44  A    between atoms: _124  and  _127
REMARK   45  A    between atoms: _127  and  _128
REMARK   46  A    between atoms: _129  and  ZN_311
REMARK   47  A    between atoms: _133  and  _135
REMARK   48  A    between atoms: _135  and  _136
REMARK   49  A    between atoms: _135  and  _138
REMARK   50  A    between atoms: _138  and  _139
REMARK   51  A    between atoms: _139  and  _140
REMARK   52  A    between atoms: _143  and  _145
REMARK   53  A    between atoms: _145  and  _146
REMARK   54  A    between atoms: _145  and  _148
REMARK   55  A    between atoms: _148  and  _149
REMARK   56  A    between atoms: _153  and  ZN_311
REMARK   57  A    between atoms: _154  and  _156
REMARK   58  A    between atoms: _156  and  _157
REMARK   59  A    between atoms: _156  and  _159
REMARK   60  A    between atoms: _159  and  _160
REMARK   61  A    between atoms: _160  and  _161
REMARK   62  A    between atoms: _166  and  _168
REMARK   63  A    between atoms: _168  and  _169
REMARK   64  A    between atoms: _168  and  _171
REMARK   65  A    between atoms: _171  and  _172
REMARK   66  A    between atoms: _177  and  _179
REMARK   67  A    between atoms: _179  and  _180
REMARK   68  A    between atoms: _179  and  _182
REMARK   69  A    between atoms: _182  and  _183
REMARK   70  A    between atoms: _186  and  _188
REMARK   71  A    between atoms: _188  and  _189
REMARK   72  A    between atoms: _188  and  _191
REMARK   73  A    between atoms: _191  and  _192
REMARK   74  A    between atoms: _197  and  _198
REMARK   75  A    between atoms: _200  and  _202
REMARK   76  A    between atoms: _202  and  _203
REMARK   77  A    between atoms: _202  and  _205
REMARK   78  A    between atoms: _207  and  _209
REMARK   79  A    between atoms: _209  and  _210
REMARK   80  A    between atoms: _209  and  _212
REMARK   81  A    between atoms: _212  and  _213
REMARK   82  A    between atoms: _217  and  _218
REMARK   83  A    between atoms: _223  and  _225
REMARK   84  A    between atoms: _225  and  _226
REMARK   85  A    between atoms: _225  and  _228
REMARK   86  A    between atoms: _228  and  _229
REMARK   87  A    between atoms: _232  and  _234
REMARK   88  A    between atoms: _234  and  _235
REMARK   89  A    between atoms: _234  and  _237
REMARK   90  A    between atoms: _237  and  _238
REMARK   91  A    between atoms: _238  and  _239
REMARK   92  A    between atoms: _239  and  ZN_312
REMARK   93  A    between atoms: _241  and  _243
REMARK   94  A    between atoms: _243  and  _244
REMARK   95  A    between atoms: _243  and  _246
REMARK   96  A    between atoms: _246  and  _247
REMARK   97  A    between atoms: _249  and  _251
REMARK   98  A    between atoms: _251  and  _252
REMARK   99  A    between atoms: _256  and  _257
REMARK  100  A    between atoms: _262  and  _264
REMARK  101  A    between atoms: _264  and  _265
REMARK  102  A    between atoms: _264  and  _267
REMARK  103  A    between atoms: _267  and  _268
REMARK  104  A    between atoms: _273  and  _275
REMARK  105  A    between atoms: _275  and  _276
REMARK  106  A    between atoms: _275  and  _278
REMARK  107  A    between atoms: _278  and  _279
REMARK  108  A    between atoms: _279  and  _280
REMARK  109  A    between atoms: _280  and  _281
REMARK  110  A    between atoms: _281  and  _282
REMARK  111  A    between atoms: _286  and  _288
REMARK  112  A    between atoms: _288  and  _289
REMARK  113  A    between atoms: _288  and  _291
REMARK  114  A    between atoms: _293  and  _295
REMARK  115  A    between atoms: _295  and  _296
REMARK  116  A    between atoms: _299  and  _301
REMARK  117  A    between atoms: _301  and  _302
REMARK  118  A    between atoms: _304  and  _306
REMARK  119  A    between atoms: _306  and  _307
REMARK  120  A    between atoms: _306  and  _309
REMARK                            x       y       z     vdW  Elec       q    Type
REMARK                         _______ _______ _______ _____ _____    ______ ____
ROOT
ATOM      1  O   HOH     1      30.748  34.682  67.135  0.00  0.00    +0.000 OA
ENDROOT
TORSDOF 0
REMARK  Name = ../refined-set-2016/1xge/1xge_pocket.pdb
REMARK  120 active torsions:
REMARK  status: ('A' for Active; 'I' for Inactive)
REMARK    1  A    between atoms: _1  and  _3
REMARK    2  A    between atoms: _14  and  _17
REMARK    3  A    between atoms: _17  and  _18
REMARK    4  A    between atoms: _23  and  _24
REMARK    5  A    between atoms: _32  and  _34
REMARK    6  A    between atoms: _34  and  _35
REMARK    7  A    between atoms: _34  and  _37
REMARK    8  A    between atoms: _37  and  _38
REMARK    9  A    between atoms: _41  and  _43
REMARK   10  A    between atoms: _43  and  _44
REMARK   11  A    between atoms: _43  and  _46
REMARK   12  A    between atoms: _46  and  _47
REMARK   13  A    between atoms: _47  and  _48
REMARK   14  A    between atoms: _48  and  _49
REMARK   15  A    between atoms: _58  and  _60
REMARK   16  A    between atoms: _60  and  _61
REMARK   17  A    between atoms: _60  and  _63
REMARK   18  A    between atoms: _63  and  _64
REMARK   19  A    between atoms: _64  and  _65
REMARK   20  A    between atoms: _67  and  _69
REMARK   21  A    between atoms: _69  and  _70
REMARK   22  A    between atoms: _69  and  _72
REMARK   23  A    between atoms: _72  and  _73
REMARK   24  A    between atoms: _78  and  _80
REMARK   25  A    between atoms: _80  and  _81
REMARK   26  A    between atoms: _80  and  _83
REMARK   27  A    between atoms: _83  and  _84
REMARK   28  A    between atoms: _87  and  _89
REMARK   29  A    between atoms: _89  and  _90
REMARK   30  A    between atoms: _89  and  _96
REMARK   31  A    between atoms: _90  and  _91
REMARK   32  A    between atoms: _91  and  _92
REMARK   33  A    between atoms: _92  and  _93
REMARK   34  A    between atoms: _93  and  _94
REMARK   35  A    between atoms: _94  and  _98
REMARK   36  A    between atoms: _101  and  _103
REMARK   37  A    between atoms: _103  and  _104
REMARK   38  A    between atoms: _103  and  _106
REMARK   39  A    between atoms: _106  and  _107
REMARK   40  A    between atoms: _112  and  _113
REMARK   41  A    between atoms: _116  and  _117
REMARK   42  A    between atoms: _122  and  _124
REMARK   43  A    between atoms: _124  and  _125
REMARK   44  A    between atoms: _124  and  _127
REMARK   45  A    between atoms: _127  and  _128
REMARK   46  A    between atoms: _129  and  ZN_311
REMARK   47  A    between atoms: _133  and  _135
REMARK   48  A    between atoms: _135  and  _136
REMARK   49  A    between atoms: _135  and  _138
REMARK   50  A    between atoms: _138  and  _139
REMARK   51  A    between atoms: _139  and  _140
REMARK   52  A    between atoms: _143  and  _145
REMARK   53  A    between atoms: _145  and  _146
REMARK   54  A    between atoms: _145  and  _148
REMARK   55  A    between atoms: _148  and  _149
REMARK   56  A    between atoms: _153  and  ZN_311
REMARK   57  A    between atoms: _154  and  _156
REMARK   58  A    between atoms: _156  and  _157
REMARK   59  A    between atoms: _156  and  _159
REMARK   60  A    between atoms: _159  and  _160
REMARK   61  A    between atoms: _160  and  _161
REMARK   62  A    between atoms: _166  and  _168
REMARK   63  A    between atoms: _168  and  _169
REMARK   64  A    between atoms: _168  and  _171
REMARK   65  A    between atoms: _171  and  _172
REMARK   66  A    between atoms: _177  and  _179
REMARK   67  A    between atoms: _179  and  _180
REMARK   68  A    between atoms: _179  and  _182
REMARK   69  A    between atoms: _182  and  _183
REMARK   70  A    between atoms: _186  and  _188
REMARK   71  A    between atoms: _188  and  _189
REMARK   72  A    between atoms: _188  and  _191
REMARK   73  A    between atoms: _191  and  _192
REMARK   74  A    between atoms: _197  and  _198
REMARK   75  A    between atoms: _200  and  _202
REMARK   76  A    between atoms: _202  and  _203
REMARK   77  A    between atoms: _202  and  _205
REMARK   78  A    between atoms: _207  and  _209
REMARK   79  A    between atoms: _209  and  _210
REMARK   80  A    between atoms: _209  and  _212
REMARK   81  A    between atoms: _212  and  _213
REMARK   82  A    between atoms: _217  and  _218
REMARK   83  A    between atoms: _223  and  _225
REMARK   84  A    between atoms: _225  and  _226
REMARK   85  A    between atoms: _225  and  _228
REMARK   86  A    between atoms: _228  and  _229
REMARK   87  A    between atoms: _232  and  _234
REMARK   88  A    between atoms: _234  and  _235
REMARK   89  A    between atoms: _234  and  _237
REMARK   90  A    between atoms: _237  and  _238
REMARK   91  A    between atoms: _238  and  _239
REMARK   92  A    between atoms: _239  and  ZN_312
REMARK   93  A    between atoms: _241  and  _243
REMARK   94  A    between atoms: _243  and  _244
REMARK   95  A    between atoms: _243  and  _246
REMARK   96  A    between atoms: _246  and  _247
REMARK   97  A    between atoms: _249  and  _251
REMARK   98  A    between atoms: _251  and  _252
REMARK   99  A    between atoms: _256  and  _257
REMARK  100  A    between atoms: _262  and  _264
REMARK  101  A    between atoms: _264  and  _265
REMARK  102  A    between atoms: _264  and  _267
REMARK  103  A    between atoms: _267  and  _268
REMARK  104  A    between atoms: _273  and  _275
REMARK  105  A    between atoms: _275  and  _276
REMARK  106  A    between atoms: _275  and  _278
REMARK  107  A    between atoms: _278  and  _279
REMARK  108  A    between atoms: _279  and  _280
REMARK  109  A    between atoms: _280  and  _281
REMARK  110  A    between atoms: _281  and  _282
REMARK  111  A    between atoms: _286  and  _288
REMARK  112  A    between atoms: _288  and  _289
REMARK  113  A    between atoms: _288  and  _291
REMARK  114  A    between atoms: _293  and  _295
REMARK  115  A    between atoms: _295  and  _296
REMARK  116  A    between atoms: _299  and  _301
REMARK  117  A    between atoms: _301  and  _302
REMARK  118  A    between atoms: _304  and  _306
REMARK  119  A    between atoms: _306  and  _307
REMARK  120  A    between atoms: _306  and  _309
REMARK                            x       y       z     vdW  Elec       q    Type
REMARK                         _______ _______ _______ _____ _____    ______ ____
ROOT
ATOM      1  O   HOH     1      26.768  41.778  68.212  0.00  0.00    +0.000 OA
ENDROOT
TORSDOF 0
REMARK  Name = ../refined-set-2016/1xge/1xge_pocket.pdb
REMARK  120 active torsions:
REMARK  status: ('A' for Active; 'I' for Inactive)
REMARK    1  A    between atoms: _1  and  _3
REMARK    2  A    between atoms: _14  and  _17
REMARK    3  A    between atoms: _17  and  _18
REMARK    4  A    between atoms: _23  and  _24
REMARK    5  A    between atoms: _32  and  _34
REMARK    6  A    between atoms: _34  and  _35
REMARK    7  A    between atoms: _34  and  _37
REMARK    8  A    between atoms: _37  and  _38
REMARK    9  A    between atoms: _41  and  _43
REMARK   10  A    between atoms: _43  and  _44
REMARK   11  A    between atoms: _43  and  _46
REMARK   12  A    between atoms: _46  and  _47
REMARK   13  A    between atoms: _47  and  _48
REMARK   14  A    between atoms: _48  and  _49
REMARK   15  A    between atoms: _58  and  _60
REMARK   16  A    between atoms: _60  and  _61
REMARK   17  A    between atoms: _60  and  _63
REMARK   18  A    between atoms: _63  and  _64
REMARK   19  A    between atoms: _64  and  _65
REMARK   20  A    between atoms: _67  and  _69
REMARK   21  A    between atoms: _69  and  _70
REMARK   22  A    between atoms: _69  and  _72
REMARK   23  A    between atoms: _72  and  _73
REMARK   24  A    between atoms: _78  and  _80
REMARK   25  A    between atoms: _80  and  _81
REMARK   26  A    between atoms: _80  and  _83
REMARK   27  A    between atoms: _83  and  _84
REMARK   28  A    between atoms: _87  and  _89
REMARK   29  A    between atoms: _89  and  _90
REMARK   30  A    between atoms: _89  and  _96
REMARK   31  A    between atoms: _90  and  _91
REMARK   32  A    between atoms: _91  and  _92
REMARK   33  A    between atoms: _92  and  _93
REMARK   34  A    between atoms: _93  and  _94
REMARK   35  A    between atoms: _94  and  _98
REMARK   36  A    between atoms: _101  and  _103
REMARK   37  A    between atoms: _103  and  _104
REMARK   38  A    between atoms: _103  and  _106
REMARK   39  A    between atoms: _106  and  _107
REMARK   40  A    between atoms: _112  and  _113
REMARK   41  A    between atoms: _116  and  _117
REMARK   42  A    between atoms: _122  and  _124
REMARK   43  A    between atoms: _124  and  _125
REMARK   44  A    between atoms: _124  and  _127
REMARK   45  A    between atoms: _127  and  _128
REMARK   46  A    between atoms: _129  and  ZN_311
REMARK   47  A    between atoms: _133  and  _135
REMARK   48  A    between atoms: _135  and  _136
REMARK   49  A    between atoms: _135  and  _138
REMARK   50  A    between atoms: _138  and  _139
REMARK   51  A    between atoms: _139  and  _140
REMARK   52  A    between atoms: _143  and  _145
REMARK   53  A    between atoms: _145  and  _146
REMARK   54  A    between atoms: _145  and  _148
REMARK   55  A    between atoms: _148  and  _149
REMARK   56  A    between atoms: _153  and  ZN_311
REMARK   57  A    between atoms: _154  and  _156
REMARK   58  A    between atoms: _156  and  _157
REMARK   59  A    between atoms: _156  and  _159
REMARK   60  A    between atoms: _159  and  _160
REMARK   61  A    between atoms: _160  and  _161
REMARK   62  A    between atoms: _166  and  _168
REMARK   63  A    between atoms: _168  and  _169
REMARK   64  A    between atoms: _168  and  _171
REMARK   65  A    between atoms: _171  and  _172
REMARK   66  A    between atoms: _177  and  _179
REMARK   67  A    between atoms: _179  and  _180
REMARK   68  A    between atoms: _179  and  _182
REMARK   69  A    between atoms: _182  and  _183
REMARK   70  A    between atoms: _186  and  _188
REMARK   71  A    between atoms: _188  and  _189
REMARK   72  A    between atoms: _188  and  _191
REMARK   73  A    between atoms: _191  and  _192
REMARK   74  A    between atoms: _197  and  _198
REMARK   75  A    between atoms: _200  and  _202
REMARK   76  A    between atoms: _202  and  _203
REMARK   77  A    between atoms: _202  and  _205
REMARK   78  A    between atoms: _207  and  _209
REMARK   79  A    between atoms: _209  and  _210
REMARK   80  A    between atoms: _209  and  _212
REMARK   81  A    between atoms: _212  and  _213
REMARK   82  A    between atoms: _217  and  _218
REMARK   83  A    between atoms: _223  and  _225
REMARK   84  A    between atoms: _225  and  _226
REMARK   85  A    between atoms: _225  and  _228
REMARK   86  A    between atoms: _228  and  _229
REMARK   87  A    between atoms: _232  and  _234
REMARK   88  A    between atoms: _234  and  _235
REMARK   89  A    between atoms: _234  and  _237
REMARK   90  A    between atoms: _237  and  _238
REMARK   91  A    between atoms: _238  and  _239
REMARK   92  A    between atoms: _239  and  ZN_312
REMARK   93  A    between atoms: _241  and  _243
REMARK   94  A    between atoms: _243  and  _244
REMARK   95  A    between atoms: _243  and  _246
REMARK   96  A    between atoms: _246  and  _247
REMARK   97  A    between atoms: _249  and  _251
REMARK   98  A    between atoms: _251  and  _252
REMARK   99  A    between atoms: _256  and  _257
REMARK  100  A    between atoms: _262  and  _264
REMARK  101  A    between atoms: _264  and  _265
REMARK  102  A    between atoms: _264  and  _267
REMARK  103  A    between atoms: _267  and  _268
REMARK  104  A    between atoms: _273  and  _275
REMARK  105  A    between atoms: _275  and  _276
REMARK  106  A    between atoms: _275  and  _278
REMARK  107  A    between atoms: _278  and  _279
REMARK  108  A    between atoms: _279  and  _280
REMARK  109  A    between atoms: _280  and  _281
REMARK  110  A    between atoms: _281  and  _282
REMARK  111  A    between atoms: _286  and  _288
REMARK  112  A    between atoms: _288  and  _289
REMARK  113  A    between atoms: _288  and  _291
REMARK  114  A    between atoms: _293  and  _295
REMARK  115  A    between atoms: _295  and  _296
REMARK  116  A    between atoms: _299  and  _301
REMARK  117  A    between atoms: _301  and  _302
REMARK  118  A    between atoms: _304  and  _306
REMARK  119  A    between atoms: _306  and  _307
REMARK  120  A    between atoms: _306  and  _309
REMARK                            x       y       z     vdW  Elec       q    Type
REMARK                         _______ _______ _______ _____ _____    ______ ____
ROOT
ATOM      1  O   HOH     1      30.971  37.450  67.013  0.00  0.00    +0.000 OA
ENDROOT
TORSDOF 0
REMARK  Name = ../refined-set-2016/1xge/1xge_pocket.pdb
REMARK  120 active torsions:
REMARK  status: ('A' for Active; 'I' for Inactive)
REMARK    1  A    between atoms: _1  and  _3
REMARK    2  A    between atoms: _14  and  _17
REMARK    3  A    between atoms: _17  and  _18
REMARK    4  A    between atoms: _23  and  _24
REMARK    5  A    between atoms: _32  and  _34
REMARK    6  A    between atoms: _34  and  _35
REMARK    7  A    between atoms: _34  and  _37
REMARK    8  A    between atoms: _37  and  _38
REMARK    9  A    between atoms: _41  and  _43
REMARK   10  A    between atoms: _43  and  _44
REMARK   11  A    between atoms: _43  and  _46
REMARK   12  A    between atoms: _46  and  _47
REMARK   13  A    between atoms: _47  and  _48
REMARK   14  A    between atoms: _48  and  _49
REMARK   15  A    between atoms: _58  and  _60
REMARK   16  A    between atoms: _60  and  _61
REMARK   17  A    between atoms: _60  and  _63
REMARK   18  A    between atoms: _63  and  _64
REMARK   19  A    between atoms: _64  and  _65
REMARK   20  A    between atoms: _67  and  _69
REMARK   21  A    between atoms: _69  and  _70
REMARK   22  A    between atoms: _69  and  _72
REMARK   23  A    between atoms: _72  and  _73
REMARK   24  A    between atoms: _78  and  _80
REMARK   25  A    between atoms: _80  and  _81
REMARK   26  A    between atoms: _80  and  _83
REMARK   27  A    between atoms: _83  and  _84
REMARK   28  A    between atoms: _87  and  _89
REMARK   29  A    between atoms: _89  and  _90
REMARK   30  A    between atoms: _89  and  _96
REMARK   31  A    between atoms: _90  and  _91
REMARK   32  A    between atoms: _91  and  _92
REMARK   33  A    between atoms: _92  and  _93
REMARK   34  A    between atoms: _93  and  _94
REMARK   35  A    between atoms: _94  and  _98
REMARK   36  A    between atoms: _101  and  _103
REMARK   37  A    between atoms: _103  and  _104
REMARK   38  A    between atoms: _103  and  _106
REMARK   39  A    between atoms: _106  and  _107
REMARK   40  A    between atoms: _112  and  _113
REMARK   41  A    between atoms: _116  and  _117
REMARK   42  A    between atoms: _122  and  _124
REMARK   43  A    between atoms: _124  and  _125
REMARK   44  A    between atoms: _124  and  _127
REMARK   45  A    between atoms: _127  and  _128
REMARK   46  A    between atoms: _129  and  ZN_311
REMARK   47  A    between atoms: _133  and  _135
REMARK   48  A    between atoms: _135  and  _136
REMARK   49  A    between atoms: _135  and  _138
REMARK   50  A    between atoms: _138  and  _139
REMARK   51  A    between atoms: _139  and  _140
REMARK   52  A    between atoms: _143  and  _145
REMARK   53  A    between atoms: _145  and  _146
REMARK   54  A    between atoms: _145  and  _148
REMARK   55  A    between atoms: _148  and  _149
REMARK   56  A    between atoms: _153  and  ZN_311
REMARK   57  A    between atoms: _154  and  _156
REMARK   58  A    between atoms: _156  and  _157
REMARK   59  A    between atoms: _156  and  _159
REMARK   60  A    between atoms: _159  and  _160
REMARK   61  A    between atoms: _160  and  _161
REMARK   62  A    between atoms: _166  and  _168
REMARK   63  A    between atoms: _168  and  _169
REMARK   64  A    between atoms: _168  and  _171
REMARK   65  A    between atoms: _171  and  _172
REMARK   66  A    between atoms: _177  and  _179
REMARK   67  A    between atoms: _179  and  _180
REMARK   68  A    between atoms: _179  and  _182
REMARK   69  A    between atoms: _182  and  _183
REMARK   70  A    between atoms: _186  and  _188
REMARK   71  A    between atoms: _188  and  _189
REMARK   72  A    between atoms: _188  and  _191
REMARK   73  A    between atoms: _191  and  _192
REMARK   74  A    between atoms: _197  and  _198
REMARK   75  A    between atoms: _200  and  _202
REMARK   76  A    between atoms: _202  and  _203
REMARK   77  A    between atoms: _202  and  _205
REMARK   78  A    between atoms: _207  and  _209
REMARK   79  A    between atoms: _209  and  _210
REMARK   80  A    between atoms: _209  and  _212
REMARK   81  A    between atoms: _212  and  _213
REMARK   82  A    between atoms: _217  and  _218
REMARK   83  A    between atoms: _223  and  _225
REMARK   84  A    between atoms: _225  and  _226
REMARK   85  A    between atoms: _225  and  _228
REMARK   86  A    between atoms: _228  and  _229
REMARK   87  A    between atoms: _232  and  _234
REMARK   88  A    between atoms: _234  and  _235
REMARK   89  A    between atoms: _234  and  _237
REMARK   90  A    between atoms: _237  and  _238
REMARK   91  A    between atoms: _238  and  _239
REMARK   92  A    between atoms: _239  and  ZN_312
REMARK   93  A    between atoms: _241  and  _243
REMARK   94  A    between atoms: _243  and  _244
REMARK   95  A    between atoms: _243  and  _246
REMARK   96  A    between atoms: _246  and  _247
REMARK   97  A    between atoms: _249  and  _251
REMARK   98  A    between atoms: _251  and  _252
REMARK   99  A    between atoms: _256  and  _257
REMARK  100  A    between atoms: _262  and  _264
REMARK  101  A    between atoms: _264  and  _265
REMARK  102  A    between atoms: _264  and  _267
REMARK  103  A    between atoms: _267  and  _268
REMARK  104  A    between atoms: _273  and  _275
REMARK  105  A    between atoms: _275  and  _276
REMARK  106  A    between atoms: _275  and  _278
REMARK  107  A    between atoms: _278  and  _279
REMARK  108  A    between atoms: _279  and  _280
REMARK  109  A    between atoms: _280  and  _281
REMARK  110  A    between atoms: _281  and  _282
REMARK  111  A    between atoms: _286  and  _288
REMARK  112  A    between atoms: _288  and  _289
REMARK  113  A    between atoms: _288  and  _291
REMARK  114  A    between atoms: _293  and  _295
REMARK  115  A    between atoms: _295  and  _296
REMARK  116  A    between atoms: _299  and  _301
REMARK  117  A    between atoms: _301  and  _302
REMARK  118  A    between atoms: _304  and  _306
REMARK  119  A    between atoms: _306  and  _307
REMARK  120  A    between atoms: _306  and  _309
REMARK                            x       y       z     vdW  Elec       q    Type
REMARK                         _______ _______ _______ _____ _____    ______ ____
ROOT
ATOM      1  O   HOH     1      21.314  45.115  67.370  0.00  0.00    +0.000 OA
ENDROOT
TORSDOF 0
REMARK  Name = ../refined-set-2016/1xge/1xge_pocket.pdb
REMARK  120 active torsions:
REMARK  status: ('A' for Active; 'I' for Inactive)
REMARK    1  A    between atoms: _1  and  _3
REMARK    2  A    between atoms: _14  and  _17
REMARK    3  A    between atoms: _17  and  _18
REMARK    4  A    between atoms: _23  and  _24
REMARK    5  A    between atoms: _32  and  _34
REMARK    6  A    between atoms: _34  and  _35
REMARK    7  A    between atoms: _34  and  _37
REMARK    8  A    between atoms: _37  and  _38
REMARK    9  A    between atoms: _41  and  _43
REMARK   10  A    between atoms: _43  and  _44
REMARK   11  A    between atoms: _43  and  _46
REMARK   12  A    between atoms: _46  and  _47
REMARK   13  A    between atoms: _47  and  _48
REMARK   14  A    between atoms: _48  and  _49
REMARK   15  A    between atoms: _58  and  _60
REMARK   16  A    between atoms: _60  and  _61
REMARK   17  A    between atoms: _60  and  _63
REMARK   18  A    between atoms: _63  and  _64
REMARK   19  A    between atoms: _64  and  _65
REMARK   20  A    between atoms: _67  and  _69
REMARK   21  A    between atoms: _69  and  _70
REMARK   22  A    between atoms: _69  and  _72
REMARK   23  A    between atoms: _72  and  _73
REMARK   24  A    between atoms: _78  and  _80
REMARK   25  A    between atoms: _80  and  _81
REMARK   26  A    between atoms: _80  and  _83
REMARK   27  A    between atoms: _83  and  _84
REMARK   28  A    between atoms: _87  and  _89
REMARK   29  A    between atoms: _89  and  _90
REMARK   30  A    between atoms: _89  and  _96
REMARK   31  A    between atoms: _90  and  _91
REMARK   32  A    between atoms: _91  and  _92
REMARK   33  A    between atoms: _92  and  _93
REMARK   34  A    between atoms: _93  and  _94
REMARK   35  A    between atoms: _94  and  _98
REMARK   36  A    between atoms: _101  and  _103
REMARK   37  A    between atoms: _103  and  _104
REMARK   38  A    between atoms: _103  and  _106
REMARK   39  A    between atoms: _106  and  _107
REMARK   40  A    between atoms: _112  and  _113
REMARK   41  A    between atoms: _116  and  _117
REMARK   42  A    between atoms: _122  and  _124
REMARK   43  A    between atoms: _124  and  _125
REMARK   44  A    between atoms: _124  and  _127
REMARK   45  A    between atoms: _127  and  _128
REMARK   46  A    between atoms: _129  and  ZN_311
REMARK   47  A    between atoms: _133  and  _135
REMARK   48  A    between atoms: _135  and  _136
REMARK   49  A    between atoms: _135  and  _138
REMARK   50  A    between atoms: _138  and  _139
REMARK   51  A    between atoms: _139  and  _140
REMARK   52  A    between atoms: _143  and  _145
REMARK   53  A    between atoms: _145  and  _146
REMARK   54  A    between atoms: _145  and  _148
REMARK   55  A    between atoms: _148  and  _149
REMARK   56  A    between atoms: _153  and  ZN_311
REMARK   57  A    between atoms: _154  and  _156
REMARK   58  A    between atoms: _156  and  _157
REMARK   59  A    between atoms: _156  and  _159
REMARK   60  A    between atoms: _159  and  _160
REMARK   61  A    between atoms: _160  and  _161
REMARK   62  A    between atoms: _166  and  _168
REMARK   63  A    between atoms: _168  and  _169
REMARK   64  A    between atoms: _168  and  _171
REMARK   65  A    between atoms: _171  and  _172
REMARK   66  A    between atoms: _177  and  _179
REMARK   67  A    between atoms: _179  and  _180
REMARK   68  A    between atoms: _179  and  _182
REMARK   69  A    between atoms: _182  and  _183
REMARK   70  A    between atoms: _186  and  _188
REMARK   71  A    between atoms: _188  and  _189
REMARK   72  A    between atoms: _188  and  _191
REMARK   73  A    between atoms: _191  and  _192
REMARK   74  A    between atoms: _197  and  _198
REMARK   75  A    between atoms: _200  and  _202
REMARK   76  A    between atoms: _202  and  _203
REMARK   77  A    between atoms: _202  and  _205
REMARK   78  A    between atoms: _207  and  _209
REMARK   79  A    between atoms: _209  and  _210
REMARK   80  A    between atoms: _209  and  _212
REMARK   81  A    between atoms: _212  and  _213
REMARK   82  A    between atoms: _217  and  _218
REMARK   83  A    between atoms: _223  and  _225
REMARK   84  A    between atoms: _225  and  _226
REMARK   85  A    between atoms: _225  and  _228
REMARK   86  A    between atoms: _228  and  _229
REMARK   87  A    between atoms: _232  and  _234
REMARK   88  A    between atoms: _234  and  _235
REMARK   89  A    between atoms: _234  and  _237
REMARK   90  A    between atoms: _237  and  _238
REMARK   91  A    between atoms: _238  and  _239
REMARK   92  A    between atoms: _239  and  ZN_312
REMARK   93  A    between atoms: _241  and  _243
REMARK   94  A    between atoms: _243  and  _244
REMARK   95  A    between atoms: _243  and  _246
REMARK   96  A    between atoms: _246  and  _247
REMARK   97  A    between atoms: _249  and  _251
REMARK   98  A    between atoms: _251  and  _252
REMARK   99  A    between atoms: _256  and  _257
REMARK  100  A    between atoms: _262  and  _264
REMARK  101  A    between atoms: _264  and  _265
REMARK  102  A    between atoms: _264  and  _267
REMARK  103  A    between atoms: _267  and  _268
REMARK  104  A    between atoms: _273  and  _275
REMARK  105  A    between atoms: _275  and  _276
REMARK  106  A    between atoms: _275  and  _278
REMARK  107  A    between atoms: _278  and  _279
REMARK  108  A    between atoms: _279  and  _280
REMARK  109  A    between atoms: _280  and  _281
REMARK  110  A    between atoms: _281  and  _282
REMARK  111  A    between atoms: _286  and  _288
REMARK  112  A    between atoms: _288  and  _289
REMARK  113  A    between atoms: _288  and  _291
REMARK  114  A    between atoms: _293  and  _295
REMARK  115  A    between atoms: _295  and  _296
REMARK  116  A    between atoms: _299  and  _301
REMARK  117  A    between atoms: _301  and  _302
REMARK  118  A    between atoms: _304  and  _306
REMARK  119  A    between atoms: _306  and  _307
REMARK  120  A    between atoms: _306  and  _309
REMARK                            x       y       z     vdW  Elec       q    Type
REMARK                         _______ _______ _______ _____ _____    ______ ____
ROOT
ATOM      1  O   HOH     1      24.608  36.016  65.853  0.00  0.00    +0.000 OA
ENDROOT
TORSDOF 0
REMARK  Name = ../refined-set-2016/1xge/1xge_pocket.pdb
REMARK  120 active torsions:
REMARK  status: ('A' for Active; 'I' for Inactive)
REMARK    1  A    between atoms: _1  and  _3
REMARK    2  A    between atoms: _14  and  _17
REMARK    3  A    between atoms: _17  and  _18
REMARK    4  A    between atoms: _23  and  _24
REMARK    5  A    between atoms: _32  and  _34
REMARK    6  A    between atoms: _34  and  _35
REMARK    7  A    between atoms: _34  and  _37
REMARK    8  A    between atoms: _37  and  _38
REMARK    9  A    between atoms: _41  and  _43
REMARK   10  A    between atoms: _43  and  _44
REMARK   11  A    between atoms: _43  and  _46
REMARK   12  A    between atoms: _46  and  _47
REMARK   13  A    between atoms: _47  and  _48
REMARK   14  A    between atoms: _48  and  _49
REMARK   15  A    between atoms: _58  and  _60
REMARK   16  A    between atoms: _60  and  _61
REMARK   17  A    between atoms: _60  and  _63
REMARK   18  A    between atoms: _63  and  _64
REMARK   19  A    between atoms: _64  and  _65
REMARK   20  A    between atoms: _67  and  _69
REMARK   21  A    between atoms: _69  and  _70
REMARK   22  A    between atoms: _69  and  _72
REMARK   23  A    between atoms: _72  and  _73
REMARK   24  A    between atoms: _78  and  _80
REMARK   25  A    between atoms: _80  and  _81
REMARK   26  A    between atoms: _80  and  _83
REMARK   27  A    between atoms: _83  and  _84
REMARK   28  A    between atoms: _87  and  _89
REMARK   29  A    between atoms: _89  and  _90
REMARK   30  A    between atoms: _89  and  _96
REMARK   31  A    between atoms: _90  and  _91
REMARK   32  A    between atoms: _91  and  _92
REMARK   33  A    between atoms: _92  and  _93
REMARK   34  A    between atoms: _93  and  _94
REMARK   35  A    between atoms: _94  and  _98
REMARK   36  A    between atoms: _101  and  _103
REMARK   37  A    between atoms: _103  and  _104
REMARK   38  A    between atoms: _103  and  _106
REMARK   39  A    between atoms: _106  and  _107
REMARK   40  A    between atoms: _112  and  _113
REMARK   41  A    between atoms: _116  and  _117
REMARK   42  A    between atoms: _122  and  _124
REMARK   43  A    between atoms: _124  and  _125
REMARK   44  A    between atoms: _124  and  _127
REMARK   45  A    between atoms: _127  and  _128
REMARK   46  A    between atoms: _129  and  ZN_311
REMARK   47  A    between atoms: _133  and  _135
REMARK   48  A    between atoms: _135  and  _136
REMARK   49  A    between atoms: _135  and  _138
REMARK   50  A    between atoms: _138  and  _139
REMARK   51  A    between atoms: _139  and  _140
REMARK   52  A    between atoms: _143  and  _145
REMARK   53  A    between atoms: _145  and  _146
REMARK   54  A    between atoms: _145  and  _148
REMARK   55  A    between atoms: _148  and  _149
REMARK   56  A    between atoms: _153  and  ZN_311
REMARK   57  A    between atoms: _154  and  _156
REMARK   58  A    between atoms: _156  and  _157
REMARK   59  A    between atoms: _156  and  _159
REMARK   60  A    between atoms: _159  and  _160
REMARK   61  A    between atoms: _160  and  _161
REMARK   62  A    between atoms: _166  and  _168
REMARK   63  A    between atoms: _168  and  _169
REMARK   64  A    between atoms: _168  and  _171
REMARK   65  A    between atoms: _171  and  _172
REMARK   66  A    between atoms: _177  and  _179
REMARK   67  A    between atoms: _179  and  _180
REMARK   68  A    between atoms: _179  and  _182
REMARK   69  A    between atoms: _182  and  _183
REMARK   70  A    between atoms: _186  and  _188
REMARK   71  A    between atoms: _188  and  _189
REMARK   72  A    between atoms: _188  and  _191
REMARK   73  A    between atoms: _191  and  _192
REMARK   74  A    between atoms: _197  and  _198
REMARK   75  A    between atoms: _200  and  _202
REMARK   76  A    between atoms: _202  and  _203
REMARK   77  A    between atoms: _202  and  _205
REMARK   78  A    between atoms: _207  and  _209
REMARK   79  A    between atoms: _209  and  _210
REMARK   80  A    between atoms: _209  and  _212
REMARK   81  A    between atoms: _212  and  _213
REMARK   82  A    between atoms: _217  and  _218
REMARK   83  A    between atoms: _223  and  _225
REMARK   84  A    between atoms: _225  and  _226
REMARK   85  A    between atoms: _225  and  _228
REMARK   86  A    between atoms: _228  and  _229
REMARK   87  A    between atoms: _232  and  _234
REMARK   88  A    between atoms: _234  and  _235
REMARK   89  A    between atoms: _234  and  _237
REMARK   90  A    between atoms: _237  and  _238
REMARK   91  A    between atoms: _238  and  _239
REMARK   92  A    between atoms: _239  and  ZN_312
REMARK   93  A    between atoms: _241  and  _243
REMARK   94  A    between atoms: _243  and  _244
REMARK   95  A    between atoms: _243  and  _246
REMARK   96  A    between atoms: _246  and  _247
REMARK   97  A    between atoms: _249  and  _251
REMARK   98  A    between atoms: _251  and  _252
REMARK   99  A    between atoms: _256  and  _257
REMARK  100  A    between atoms: _262  and  _264
REMARK  101  A    between atoms: _264  and  _265
REMARK  102  A    between atoms: _264  and  _267
REMARK  103  A    between atoms: _267  and  _268
REMARK  104  A    between atoms: _273  and  _275
REMARK  105  A    between atoms: _275  and  _276
REMARK  106  A    between atoms: _275  and  _278
REMARK  107  A    between atoms: _278  and  _279
REMARK  108  A    between atoms: _279  and  _280
REMARK  109  A    between atoms: _280  and  _281
REMARK  110  A    between atoms: _281  and  _282
REMARK  111  A    between atoms: _286  and  _288
REMARK  112  A    between atoms: _288  and  _289
REMARK  113  A    between atoms: _288  and  _291
REMARK  114  A    between atoms: _293  and  _295
REMARK  115  A    between atoms: _295  and  _296
REMARK  116  A    between atoms: _299  and  _301
REMARK  117  A    between atoms: _301  and  _302
REMARK  118  A    between atoms: _304  and  _306
REMARK  119  A    between atoms: _306  and  _307
REMARK  120  A    between atoms: _306  and  _309
REMARK                            x       y       z     vdW  Elec       q    Type
REMARK                         _______ _______ _______ _____ _____    ______ ____
ROOT
ATOM      1  O   HOH     1      24.389  44.098  69.622  0.00  0.00    +0.000 OA
ENDROOT
TORSDOF 0
REMARK  Name = ../refined-set-2016/1xge/1xge_pocket.pdb
REMARK  120 active torsions:
REMARK  status: ('A' for Active; 'I' for Inactive)
REMARK    1  A    between atoms: _1  and  _3
REMARK    2  A    between atoms: _14  and  _17
REMARK    3  A    between atoms: _17  and  _18
REMARK    4  A    between atoms: _23  and  _24
REMARK    5  A    between atoms: _32  and  _34
REMARK    6  A    between atoms: _34  and  _35
REMARK    7  A    between atoms: _34  and  _37
REMARK    8  A    between atoms: _37  and  _38
REMARK    9  A    between atoms: _41  and  _43
REMARK   10  A    between atoms: _43  and  _44
REMARK   11  A    between atoms: _43  and  _46
REMARK   12  A    between atoms: _46  and  _47
REMARK   13  A    between atoms: _47  and  _48
REMARK   14  A    between atoms: _48  and  _49
REMARK   15  A    between atoms: _58  and  _60
REMARK   16  A    between atoms: _60  and  _61
REMARK   17  A    between atoms: _60  and  _63
REMARK   18  A    between atoms: _63  and  _64
REMARK   19  A    between atoms: _64  and  _65
REMARK   20  A    between atoms: _67  and  _69
REMARK   21  A    between atoms: _69  and  _70
REMARK   22  A    between atoms: _69  and  _72
REMARK   23  A    between atoms: _72  and  _73
REMARK   24  A    between atoms: _78  and  _80
REMARK   25  A    between atoms: _80  and  _81
REMARK   26  A    between atoms: _80  and  _83
REMARK   27  A    between atoms: _83  and  _84
REMARK   28  A    between atoms: _87  and  _89
REMARK   29  A    between atoms: _89  and  _90
REMARK   30  A    between atoms: _89  and  _96
REMARK   31  A    between atoms: _90  and  _91
REMARK   32  A    between atoms: _91  and  _92
REMARK   33  A    between atoms: _92  and  _93
REMARK   34  A    between atoms: _93  and  _94
REMARK   35  A    between atoms: _94  and  _98
REMARK   36  A    between atoms: _101  and  _103
REMARK   37  A    between atoms: _103  and  _104
REMARK   38  A    between atoms: _103  and  _106
REMARK   39  A    between atoms: _106  and  _107
REMARK   40  A    between atoms: _112  and  _113
REMARK   41  A    between atoms: _116  and  _117
REMARK   42  A    between atoms: _122  and  _124
REMARK   43  A    between atoms: _124  and  _125
REMARK   44  A    between atoms: _124  and  _127
REMARK   45  A    between atoms: _127  and  _128
REMARK   46  A    between atoms: _129  and  ZN_311
REMARK   47  A    between atoms: _133  and  _135
REMARK   48  A    between atoms: _135  and  _136
REMARK   49  A    between atoms: _135  and  _138
REMARK   50  A    between atoms: _138  and  _139
REMARK   51  A    between atoms: _139  and  _140
REMARK   52  A    between atoms: _143  and  _145
REMARK   53  A    between atoms: _145  and  _146
REMARK   54  A    between atoms: _145  and  _148
REMARK   55  A    between atoms: _148  and  _149
REMARK   56  A    between atoms: _153  and  ZN_311
REMARK   57  A    between atoms: _154  and  _156
REMARK   58  A    between atoms: _156  and  _157
REMARK   59  A    between atoms: _156  and  _159
REMARK   60  A    between atoms: _159  and  _160
REMARK   61  A    between atoms: _160  and  _161
REMARK   62  A    between atoms: _166  and  _168
REMARK   63  A    between atoms: _168  and  _169
REMARK   64  A    between atoms: _168  and  _171
REMARK   65  A    between atoms: _171  and  _172
REMARK   66  A    between atoms: _177  and  _179
REMARK   67  A    between atoms: _179  and  _180
REMARK   68  A    between atoms: _179  and  _182
REMARK   69  A    between atoms: _182  and  _183
REMARK   70  A    between atoms: _186  and  _188
REMARK   71  A    between atoms: _188  and  _189
REMARK   72  A    between atoms: _188  and  _191
REMARK   73  A    between atoms: _191  and  _192
REMARK   74  A    between atoms: _197  and  _198
REMARK   75  A    between atoms: _200  and  _202
REMARK   76  A    between atoms: _202  and  _203
REMARK   77  A    between atoms: _202  and  _205
REMARK   78  A    between atoms: _207  and  _209
REMARK   79  A    between atoms: _209  and  _210
REMARK   80  A    between atoms: _209  and  _212
REMARK   81  A    between atoms: _212  and  _213
REMARK   82  A    between atoms: _217  and  _218
REMARK   83  A    between atoms: _223  and  _225
REMARK   84  A    between atoms: _225  and  _226
REMARK   85  A    between atoms: _225  and  _228
REMARK   86  A    between atoms: _228  and  _229
REMARK   87  A    between atoms: _232  and  _234
REMARK   88  A    between atoms: _234  and  _235
REMARK   89  A    between atoms: _234  and  _237
REMARK   90  A    between atoms: _237  and  _238
REMARK   91  A    between atoms: _238  and  _239
REMARK   92  A    between atoms: _239  and  ZN_312
REMARK   93  A    between atoms: _241  and  _243
REMARK   94  A    between atoms: _243  and  _244
REMARK   95  A    between atoms: _243  and  _246
REMARK   96  A    between atoms: _246  and  _247
REMARK   97  A    between atoms: _249  and  _251
REMARK   98  A    between atoms: _251  and  _252
REMARK   99  A    between atoms: _256  and  _257
REMARK  100  A    between atoms: _262  and  _264
REMARK  101  A    between atoms: _264  and  _265
REMARK  102  A    between atoms: _264  and  _267
REMARK  103  A    between atoms: _267  and  _268
REMARK  104  A    between atoms: _273  and  _275
REMARK  105  A    between atoms: _275  and  _276
REMARK  106  A    between atoms: _275  and  _278
REMARK  107  A    between atoms: _278  and  _279
REMARK  108  A    between atoms: _279  and  _280
REMARK  109  A    between atoms: _280  and  _281
REMARK  110  A    between atoms: _281  and  _282
REMARK  111  A    between atoms: _286  and  _288
REMARK  112  A    between atoms: _288  and  _289
REMARK  113  A    between atoms: _288  and  _291
REMARK  114  A    between atoms: _293  and  _295
REMARK  115  A    between atoms: _295  and  _296
REMARK  116  A    between atoms: _299  and  _301
REMARK  117  A    between atoms: _301  and  _302
REMARK  118  A    between atoms: _304  and  _306
REMARK  119  A    between atoms: _306  and  _307
REMARK  120  A    between atoms: _306  and  _309
REMARK                            x       y       z     vdW  Elec       q    Type
REMARK                         _______ _______ _______ _____ _____    ______ ____
ROOT
ATOM      1  O   HOH     1      24.254  40.989  69.298  0.00  0.00    +0.000 OA
ENDROOT
TORSDOF 0
REMARK  Name = ../refined-set-2016/1xge/1xge_pocket.pdb
REMARK  120 active torsions:
REMARK  status: ('A' for Active; 'I' for Inactive)
REMARK    1  A    between atoms: _1  and  _3
REMARK    2  A    between atoms: _14  and  _17
REMARK    3  A    between atoms: _17  and  _18
REMARK    4  A    between atoms: _23  and  _24
REMARK    5  A    between atoms: _32  and  _34
REMARK    6  A    between atoms: _34  and  _35
REMARK    7  A    between atoms: _34  and  _37
REMARK    8  A    between atoms: _37  and  _38
REMARK    9  A    between atoms: _41  and  _43
REMARK   10  A    between atoms: _43  and  _44
REMARK   11  A    between atoms: _43  and  _46
REMARK   12  A    between atoms: _46  and  _47
REMARK   13  A    between atoms: _47  and  _48
REMARK   14  A    between atoms: _48  and  _49
REMARK   15  A    between atoms: _58  and  _60
REMARK   16  A    between atoms: _60  and  _61
REMARK   17  A    between atoms: _60  and  _63
REMARK   18  A    between atoms: _63  and  _64
REMARK   19  A    between atoms: _64  and  _65
REMARK   20  A    between atoms: _67  and  _69
REMARK   21  A    between atoms: _69  and  _70
REMARK   22  A    between atoms: _69  and  _72
REMARK   23  A    between atoms: _72  and  _73
REMARK   24  A    between atoms: _78  and  _80
REMARK   25  A    between atoms: _80  and  _81
REMARK   26  A    between atoms: _80  and  _83
REMARK   27  A    between atoms: _83  and  _84
REMARK   28  A    between atoms: _87  and  _89
REMARK   29  A    between atoms: _89  and  _90
REMARK   30  A    between atoms: _89  and  _96
REMARK   31  A    between atoms: _90  and  _91
REMARK   32  A    between atoms: _91  and  _92
REMARK   33  A    between atoms: _92  and  _93
REMARK   34  A    between atoms: _93  and  _94
REMARK   35  A    between atoms: _94  and  _98
REMARK   36  A    between atoms: _101  and  _103
REMARK   37  A    between atoms: _103  and  _104
REMARK   38  A    between atoms: _103  and  _106
REMARK   39  A    between atoms: _106  and  _107
REMARK   40  A    between atoms: _112  and  _113
REMARK   41  A    between atoms: _116  and  _117
REMARK   42  A    between atoms: _122  and  _124
REMARK   43  A    between atoms: _124  and  _125
REMARK   44  A    between atoms: _124  and  _127
REMARK   45  A    between atoms: _127  and  _128
REMARK   46  A    between atoms: _129  and  ZN_311
REMARK   47  A    between atoms: _133  and  _135
REMARK   48  A    between atoms: _135  and  _136
REMARK   49  A    between atoms: _135  and  _138
REMARK   50  A    between atoms: _138  and  _139
REMARK   51  A    between atoms: _139  and  _140
REMARK   52  A    between atoms: _143  and  _145
REMARK   53  A    between atoms: _145  and  _146
REMARK   54  A    between atoms: _145  and  _148
REMARK   55  A    between atoms: _148  and  _149
REMARK   56  A    between atoms: _153  and  ZN_311
REMARK   57  A    between atoms: _154  and  _156
REMARK   58  A    between atoms: _156  and  _157
REMARK   59  A    between atoms: _156  and  _159
REMARK   60  A    between atoms: _159  and  _160
REMARK   61  A    between atoms: _160  and  _161
REMARK   62  A    between atoms: _166  and  _168
REMARK   63  A    between atoms: _168  and  _169
REMARK   64  A    between atoms: _168  and  _171
REMARK   65  A    between atoms: _171  and  _172
REMARK   66  A    between atoms: _177  and  _179
REMARK   67  A    between atoms: _179  and  _180
REMARK   68  A    between atoms: _179  and  _182
REMARK   69  A    between atoms: _182  and  _183
REMARK   70  A    between atoms: _186  and  _188
REMARK   71  A    between atoms: _188  and  _189
REMARK   72  A    between atoms: _188  and  _191
REMARK   73  A    between atoms: _191  and  _192
REMARK   74  A    between atoms: _197  and  _198
REMARK   75  A    between atoms: _200  and  _202
REMARK   76  A    between atoms: _202  and  _203
REMARK   77  A    between atoms: _202  and  _205
REMARK   78  A    between atoms: _207  and  _209
REMARK   79  A    between atoms: _209  and  _210
REMARK   80  A    between atoms: _209  and  _212
REMARK   81  A    between atoms: _212  and  _213
REMARK   82  A    between atoms: _217  and  _218
REMARK   83  A    between atoms: _223  and  _225
REMARK   84  A    between atoms: _225  and  _226
REMARK   85  A    between atoms: _225  and  _228
REMARK   86  A    between atoms: _228  and  _229
REMARK   87  A    between atoms: _232  and  _234
REMARK   88  A    between atoms: _234  and  _235
REMARK   89  A    between atoms: _234  and  _237
REMARK   90  A    between atoms: _237  and  _238
REMARK   91  A    between atoms: _238  and  _239
REMARK   92  A    between atoms: _239  and  ZN_312
REMARK   93  A    between atoms: _241  and  _243
REMARK   94  A    between atoms: _243  and  _244
REMARK   95  A    between atoms: _243  and  _246
REMARK   96  A    between atoms: _246  and  _247
REMARK   97  A    between atoms: _249  and  _251
REMARK   98  A    between atoms: _251  and  _252
REMARK   99  A    between atoms: _256  and  _257
REMARK  100  A    between atoms: _262  and  _264
REMARK  101  A    between atoms: _264  and  _265
REMARK  102  A    between atoms: _264  and  _267
REMARK  103  A    between atoms: _267  and  _268
REMARK  104  A    between atoms: _273  and  _275
REMARK  105  A    between atoms: _275  and  _276
REMARK  106  A    between atoms: _275  and  _278
REMARK  107  A    between atoms: _278  and  _279
REMARK  108  A    between atoms: _279  and  _280
REMARK  109  A    between atoms: _280  and  _281
REMARK  110  A    between atoms: _281  and  _282
REMARK  111  A    between atoms: _286  and  _288
REMARK  112  A    between atoms: _288  and  _289
REMARK  113  A    between atoms: _288  and  _291
REMARK  114  A    between atoms: _293  and  _295
REMARK  115  A    between atoms: _295  and  _296
REMARK  116  A    between atoms: _299  and  _301
REMARK  117  A    between atoms: _301  and  _302
REMARK  118  A    between atoms: _304  and  _306
REMARK  119  A    between atoms: _306  and  _307
REMARK  120  A    between atoms: _306  and  _309
REMARK                            x       y       z     vdW  Elec       q    Type
REMARK                         _______ _______ _______ _____ _____    ______ ____
ROOT
ATOM      1  O   HOH     1      21.975  46.400  70.211  0.00  0.00    +0.000 OA
ENDROOT
TORSDOF 0
REMARK  Name = ../refined-set-2016/1xge/1xge_pocket.pdb
REMARK  120 active torsions:
REMARK  status: ('A' for Active; 'I' for Inactive)
REMARK    1  A    between atoms: _1  and  _3
REMARK    2  A    between atoms: _14  and  _17
REMARK    3  A    between atoms: _17  and  _18
REMARK    4  A    between atoms: _23  and  _24
REMARK    5  A    between atoms: _32  and  _34
REMARK    6  A    between atoms: _34  and  _35
REMARK    7  A    between atoms: _34  and  _37
REMARK    8  A    between atoms: _37  and  _38
REMARK    9  A    between atoms: _41  and  _43
REMARK   10  A    between atoms: _43  and  _44
REMARK   11  A    between atoms: _43  and  _46
REMARK   12  A    between atoms: _46  and  _47
REMARK   13  A    between atoms: _47  and  _48
REMARK   14  A    between atoms: _48  and  _49
REMARK   15  A    between atoms: _58  and  _60
REMARK   16  A    between atoms: _60  and  _61
REMARK   17  A    between atoms: _60  and  _63
REMARK   18  A    between atoms: _63  and  _64
REMARK   19  A    between atoms: _64  and  _65
REMARK   20  A    between atoms: _67  and  _69
REMARK   21  A    between atoms: _69  and  _70
REMARK   22  A    between atoms: _69  and  _72
REMARK   23  A    between atoms: _72  and  _73
REMARK   24  A    between atoms: _78  and  _80
REMARK   25  A    between atoms: _80  and  _81
REMARK   26  A    between atoms: _80  and  _83
REMARK   27  A    between atoms: _83  and  _84
REMARK   28  A    between atoms: _87  and  _89
REMARK   29  A    between atoms: _89  and  _90
REMARK   30  A    between atoms: _89  and  _96
REMARK   31  A    between atoms: _90  and  _91
REMARK   32  A    between atoms: _91  and  _92
REMARK   33  A    between atoms: _92  and  _93
REMARK   34  A    between atoms: _93  and  _94
REMARK   35  A    between atoms: _94  and  _98
REMARK   36  A    between atoms: _101  and  _103
REMARK   37  A    between atoms: _103  and  _104
REMARK   38  A    between atoms: _103  and  _106
REMARK   39  A    between atoms: _106  and  _107
REMARK   40  A    between atoms: _112  and  _113
REMARK   41  A    between atoms: _116  and  _117
REMARK   42  A    between atoms: _122  and  _124
REMARK   43  A    between atoms: _124  and  _125
REMARK   44  A    between atoms: _124  and  _127
REMARK   45  A    between atoms: _127  and  _128
REMARK   46  A    between atoms: _129  and  ZN_311
REMARK   47  A    between atoms: _133  and  _135
REMARK   48  A    between atoms: _135  and  _136
REMARK   49  A    between atoms: _135  and  _138
REMARK   50  A    between atoms: _138  and  _139
REMARK   51  A    between atoms: _139  and  _140
REMARK   52  A    between atoms: _143  and  _145
REMARK   53  A    between atoms: _145  and  _146
REMARK   54  A    between atoms: _145  and  _148
REMARK   55  A    between atoms: _148  and  _149
REMARK   56  A    between atoms: _153  and  ZN_311
REMARK   57  A    between atoms: _154  and  _156
REMARK   58  A    between atoms: _156  and  _157
REMARK   59  A    between atoms: _156  and  _159
REMARK   60  A    between atoms: _159  and  _160
REMARK   61  A    between atoms: _160  and  _161
REMARK   62  A    between atoms: _166  and  _168
REMARK   63  A    between atoms: _168  and  _169
REMARK   64  A    between atoms: _168  and  _171
REMARK   65  A    between atoms: _171  and  _172
REMARK   66  A    between atoms: _177  and  _179
REMARK   67  A    between atoms: _179  and  _180
REMARK   68  A    between atoms: _179  and  _182
REMARK   69  A    between atoms: _182  and  _183
REMARK   70  A    between atoms: _186  and  _188
REMARK   71  A    between atoms: _188  and  _189
REMARK   72  A    between atoms: _188  and  _191
REMARK   73  A    between atoms: _191  and  _192
REMARK   74  A    between atoms: _197  and  _198
REMARK   75  A    between atoms: _200  and  _202
REMARK   76  A    between atoms: _202  and  _203
REMARK   77  A    between atoms: _202  and  _205
REMARK   78  A    between atoms: _207  and  _209
REMARK   79  A    between atoms: _209  and  _210
REMARK   80  A    between atoms: _209  and  _212
REMARK   81  A    between atoms: _212  and  _213
REMARK   82  A    between atoms: _217  and  _218
REMARK   83  A    between atoms: _223  and  _225
REMARK   84  A    between atoms: _225  and  _226
REMARK   85  A    between atoms: _225  and  _228
REMARK   86  A    between atoms: _228  and  _229
REMARK   87  A    between atoms: _232  and  _234
REMARK   88  A    between atoms: _234  and  _235
REMARK   89  A    between atoms: _234  and  _237
REMARK   90  A    between atoms: _237  and  _238
REMARK   91  A    between atoms: _238  and  _239
REMARK   92  A    between atoms: _239  and  ZN_312
REMARK   93  A    between atoms: _241  and  _243
REMARK   94  A    between atoms: _243  and  _244
REMARK   95  A    between atoms: _243  and  _246
REMARK   96  A    between atoms: _246  and  _247
REMARK   97  A    between atoms: _249  and  _251
REMARK   98  A    between atoms: _251  and  _252
REMARK   99  A    between atoms: _256  and  _257
REMARK  100  A    between atoms: _262  and  _264
REMARK  101  A    between atoms: _264  and  _265
REMARK  102  A    between atoms: _264  and  _267
REMARK  103  A    between atoms: _267  and  _268
REMARK  104  A    between atoms: _273  and  _275
REMARK  105  A    between atoms: _275  and  _276
REMARK  106  A    between atoms: _275  and  _278
REMARK  107  A    between atoms: _278  and  _279
REMARK  108  A    between atoms: _279  and  _280
REMARK  109  A    between atoms: _280  and  _281
REMARK  110  A    between atoms: _281  and  _282
REMARK  111  A    between atoms: _286  and  _288
REMARK  112  A    between atoms: _288  and  _289
REMARK  113  A    between atoms: _288  and  _291
REMARK  114  A    between atoms: _293  and  _295
REMARK  115  A    between atoms: _295  and  _296
REMARK  116  A    between atoms: _299  and  _301
REMARK  117  A    between atoms: _301  and  _302
REMARK  118  A    between atoms: _304  and  _306
REMARK  119  A    between atoms: _306  and  _307
REMARK  120  A    between atoms: _306  and  _309
REMARK                            x       y       z     vdW  Elec       q    Type
REMARK                         _______ _______ _______ _____ _____    ______ ____
ROOT
ATOM      1  O   HOH     1      20.709  41.570  65.455  0.00  0.00    +0.000 OA
ENDROOT
TORSDOF 0
