REMARK  Name = ../refined-set-2016/3n3g/3n3g_pocket.pdb
REMARK  110 active torsions:
REMARK  status: ('A' for Active; 'I' for Inactive)
REMARK    1  A    between atoms: _1  and  _3
REMARK    2  A    between atoms: _3  and  _4
REMARK    3  A    between atoms: _3  and  _6
REMARK    4  A    between atoms: _6  and  _7
REMARK    5  A    between atoms: _7  and  _8
REMARK    6  A    between atoms: _8  and  _9
REMARK    7  A    between atoms: _9  and  _10
REMARK    8  A    between atoms: _14  and  _16
REMARK    9  A    between atoms: _16  and  _17
REMARK   10  A    between atoms: _16  and  _19
REMARK   11  A    between atoms: _19  and  _20
REMARK   12  A    between atoms: _25  and  _26
REMARK   13  A    between atoms: _28  and  _30
REMARK   14  A    between atoms: _30  and  _31
REMARK   15  A    between atoms: _30  and  _33
REMARK   16  A    between atoms: _33  and  _34
REMARK   17  A    between atoms: _34  and  _35
REMARK   18  A    between atoms: _40  and  _42
REMARK   19  A    between atoms: _42  and  _43
REMARK   20  A    between atoms: _45  and  _47
REMARK   21  A    between atoms: _47  and  _48
REMARK   22  A    between atoms: _47  and  _50
REMARK   23  A    between atoms: _50  and  _51
REMARK   24  A    between atoms: _53  and  _55
REMARK   25  A    between atoms: _55  and  _56
REMARK   26  A    between atoms: _55  and  _58
REMARK   27  A    between atoms: _60  and  _62
REMARK   28  A    between atoms: _62  and  _63
REMARK   29  A    between atoms: _66  and  _68
REMARK   30  A    between atoms: _68  and  _69
REMARK   31  A    between atoms: _68  and  _71
REMARK   32  A    between atoms: _71  and  _72
REMARK   33  A    between atoms: _78  and  _80
REMARK   34  A    between atoms: _80  and  _81
REMARK   35  A    between atoms: _80  and  _83
REMARK   36  A    between atoms: _83  and  _84
REMARK   37  A    between atoms: _89  and  _90
REMARK   38  A    between atoms: _92  and  _94
REMARK   39  A    between atoms: _94  and  _95
REMARK   40  A    between atoms: _99  and  _100
REMARK   41  A    between atoms: _105  and  _107
REMARK   42  A    between atoms: _107  and  _108
REMARK   43  A    between atoms: _107  and  _110
REMARK   44  A    between atoms: _110  and  _111
REMARK   45  A    between atoms: _113  and  _115
REMARK   46  A    between atoms: _115  and  _116
REMARK   47  A    between atoms: _115  and  _118
REMARK   48  A    between atoms: _118  and  _119
REMARK   49  A    between atoms: _125  and  _127
REMARK   50  A    between atoms: _127  and  _128
REMARK   51  A    between atoms: _127  and  _130
REMARK   52  A    between atoms: _130  and  _131
REMARK   53  A    between atoms: _137  and  _139
REMARK   54  A    between atoms: _139  and  _140
REMARK   55  A    between atoms: _139  and  _142
REMARK   56  A    between atoms: _142  and  _143
REMARK   57  A    between atoms: _146  and  _148
REMARK   58  A    between atoms: _148  and  _149
REMARK   59  A    between atoms: _148  and  _151
REMARK   60  A    between atoms: _151  and  _152
REMARK   61  A    between atoms: _157  and  _158
REMARK   62  A    between atoms: _160  and  _162
REMARK   63  A    between atoms: _162  and  _163
REMARK   64  A    between atoms: _162  and  _165
REMARK   65  A    between atoms: _165  and  _166
REMARK   66  A    between atoms: _166  and  _167
REMARK   67  A    between atoms: _167  and  _168
REMARK   68  A    between atoms: _177  and  _179
REMARK   69  A    between atoms: _179  and  _180
REMARK   70  A    between atoms: _179  and  _182
REMARK   71  A    between atoms: _182  and  _183
REMARK   72  A    between atoms: _185  and  _187
REMARK   73  A    between atoms: _187  and  _188
REMARK   74  A    between atoms: _187  and  _190
REMARK   75  A    between atoms: _190  and  _191
REMARK   76  A    between atoms: _196  and  _198
REMARK   77  A    between atoms: _198  and  _199
REMARK   78  A    between atoms: _198  and  _201
REMARK   79  A    between atoms: _201  and  _202
REMARK   80  A    between atoms: _207  and  _209
REMARK   81  A    between atoms: _209  and  _210
REMARK   82  A    between atoms: _209  and  _212
REMARK   83  A    between atoms: _212  and  _213
REMARK   84  A    between atoms: _215  and  _217
REMARK   85  A    between atoms: _217  and  _218
REMARK   86  A    between atoms: _217  and  _220
REMARK   87  A    between atoms: _220  and  _221
REMARK   88  A    between atoms: _231  and  _233
REMARK   89  A    between atoms: _233  and  _234
REMARK   90  A    between atoms: _236  and  _238
REMARK   91  A    between atoms: _238  and  _239
REMARK   92  A    between atoms: _238  and  _241
REMARK   93  A    between atoms: _241  and  _242
REMARK   94  A    between atoms: _247  and  _249
REMARK   95  A    between atoms: _249  and  _250
REMARK   96  A    between atoms: _249  and  _252
REMARK   97  A    between atoms: _252  and  _253
REMARK   98  A    between atoms: _258  and  _260
REMARK   99  A    between atoms: _260  and  _261
REMARK  100  A    between atoms: _260  and  _263
REMARK  101  A    between atoms: _263  and  _264
REMARK  102  A    between atoms: _270  and  _272
REMARK  103  A    between atoms: _272  and  _273
REMARK  104  A    between atoms: _275  and  _277
REMARK  105  A    between atoms: _277  and  _278
REMARK  106  A    between atoms: _277  and  _280
REMARK  107  A    between atoms: _280  and  _281
REMARK  108  A    between atoms: _281  and  _282
REMARK  109  A    between atoms: _285  and  _287
REMARK  110  A    between atoms: _287  and  _288
REMARK                            x       y       z     vdW  Elec       q    Type
REMARK                         _______ _______ _______ _____ _____    ______ ____
ROOT
ATOM      1  CA  GLN A   3      20.056  -4.319  22.211  0.00  0.00    +0.149 C 
ENDROOT
BRANCH   1   4
ATOM      2  C   TYR A   2      21.110  -6.036  20.857  0.00  0.00    +0.241 C 
ATOM      3  O   TYR A   2      21.898  -6.286  21.755  0.00  0.00    -0.273 OA
ATOM      4  N   GLN A   3      20.153  -5.121  20.987  0.00  0.00    -0.297 N 
ATOM      5  H   GLN A   3      19.470  -4.974  20.217  0.00  0.00    +0.150 HD
BRANCH   2   6
ATOM      6  CA  TYR A   2      21.212  -6.761  19.509  0.00  0.00    +0.153 C 
BRANCH   6   8
ATOM      7  C   LYS A   1      22.377  -5.798  17.585  0.00  0.00    +0.238 C 
ATOM      8  N   TYR A   2      22.402  -6.346  18.797  0.00  0.00    -0.297 N 
ATOM      9  H   TYR A   2      23.325  -6.483  19.257  0.00  0.00    +0.150 HD
ATOM     10  O   LYS A   1      21.347  -5.567  16.972  0.00  0.00    -0.274 OA
BRANCH   7  11
ATOM     11  CA  LYS A   1      23.741  -5.464  16.985  0.00  0.00    +0.145 C 
BRANCH  11  12
ATOM     12  N   LYS A   1      23.636  -5.254  15.540  0.00  0.00    -0.238 NA
ATOM     13  H   LYS A   1      23.212  -4.370  15.193  0.00  0.00    +0.142 HD
ENDBRANCH  11  12
BRANCH  11  14
ATOM     14  CB  LYS A   1      24.325  -4.230  17.680  0.00  0.00    +0.026 C 
BRANCH  14  15
ATOM     15  CG  LYS A   1      25.652  -3.696  17.108  0.00  0.00    -0.000 C 
BRANCH  15  16
ATOM     16  CD  LYS A   1      26.784  -4.758  17.017  0.00  0.00    -0.024 C 
BRANCH  16  17
ATOM     17  CE  LYS A   1      28.128  -4.129  16.637  0.00  0.00    -0.086 C 
BRANCH  17  18
ATOM     18  NZ  LYS A   1      28.136  -3.396  15.318  0.00  0.00    +0.380 N 
ATOM     19  HZ1 LYS A   1      27.441  -2.623  15.348  0.00  0.00    -0.089 HD
ATOM     20  HZ2 LYS A   1      29.084  -3.005  15.146  0.00  0.00    -0.089 HD
ATOM     21  HZ3 LYS A   1      27.888  -4.057  14.554  0.00  0.00    -0.089 HD
ENDBRANCH  17  18
ENDBRANCH  16  17
ENDBRANCH  15  16
ENDBRANCH  14  15
ENDBRANCH  11  14
ENDBRANCH   7  11
ENDBRANCH   6   8
BRANCH   6  22
ATOM     22  CB  TYR A   2      21.271  -8.270  19.705  0.00  0.00    +0.055 C 
BRANCH  22  23
ATOM     23  CG  TYR A   2      20.133  -8.816  20.516  0.00  0.00    -0.020 A 
ATOM     24  CD2 TYR A   2      20.360  -9.382  21.772  0.00  0.00    -0.001 A 
ATOM     25  CE2 TYR A   2      19.329  -9.896  22.516  0.00  0.00    +0.036 A 
ATOM     26  CZ  TYR A   2      18.045  -9.839  22.009  0.00  0.00    +0.134 A 
ATOM     27  CE1 TYR A   2      17.789  -9.280  20.761  0.00  0.00    +0.036 A 
ATOM     28  CD1 TYR A   2      18.836  -8.779  20.027  0.00  0.00    -0.001 A 
BRANCH  26  29
ATOM     29  OH  TYR A   2      17.015 -10.343  22.745  0.00  0.00    -0.506 OA
ATOM     30  HH  TYR A   2      17.171 -11.306  22.913  0.00  0.00    +0.292 HD
ENDBRANCH  26  29
ENDBRANCH  22  23
ENDBRANCH   6  22
ENDBRANCH   2   6
ENDBRANCH   1   4
BRANCH   1  31
ATOM     31  C   GLN A   3      19.461  -5.057  23.416  0.00  0.00    +0.241 C 
ATOM     32  O   GLN A   3      19.700  -4.670  24.563  0.00  0.00    -0.273 OA
ATOM     33  N   GLY A   4      18.736  -6.142  23.147  0.00  0.00    -0.295 N 
ATOM     34  H   GLY A   4      18.670  -6.462  22.160  0.00  0.00    +0.150 HD
BRANCH  33  35
ATOM     35  CA  GLY A   4      18.034  -6.898  24.169  0.00  0.00    +0.176 C 
BRANCH  35  36
ATOM     36  C   GLY A   4      16.942  -6.087  24.827  0.00  0.00    +0.243 C 
ATOM     37  N   SER A   5      16.785  -6.264  26.133  0.00  0.00    -0.295 N 
ATOM     38  H   SER A   5      17.432  -6.902  26.639  0.00  0.00    +0.150 HD
ATOM     39  O   GLY A   4      16.281  -5.287  24.186  0.00  0.00    -0.273 OA
BRANCH  37  40
ATOM     40  CA  SER A   5      15.731  -5.588  26.876  0.00  0.00    +0.178 C 
BRANCH  40  41
ATOM     41  C   SER A   5      16.100  -4.157  27.319  0.00  0.00    +0.243 C 
ATOM     42  O   SER A   5      15.331  -3.509  28.030  0.00  0.00    -0.273 OA
ATOM     43  N   CYS A   6      17.263  -3.672  26.893  0.00  0.00    -0.297 N 
ATOM     44  H   CYS A   6      17.863  -4.281  26.301  0.00  0.00    +0.150 HD
BRANCH  43  45
ATOM     45  CA  CYS A   6      17.742  -2.333  27.211  0.00  0.00    +0.149 C 
BRANCH  45  46
ATOM     46  C   CYS A   6      17.453  -1.387  26.044  0.00  0.00    +0.228 C 
ATOM     47  O   CYS A   6      17.845  -1.651  24.901  0.00  0.00    -0.286 OA
ENDBRANCH  45  46
BRANCH  45  48
ATOM     48  CB  CYS A   6      19.236  -2.404  27.507  0.00  0.00    +0.096 C 
ATOM     49  SG  CYS A   6      20.086  -0.834  27.711  0.00  0.00    -0.080 S 
ENDBRANCH  45  48
ENDBRANCH  43  45
ENDBRANCH  40  41
BRANCH  40  50
ATOM     50  CB  SER A   5      15.365  -6.441  28.088  0.00  0.00    +0.166 C 
BRANCH  50  51
ATOM     51  OG  SER A   5      16.519  -6.672  28.877  0.00  0.00    -0.380 OA
ATOM     52  H   SER A   5      17.198  -7.146  28.335  0.00  0.00    +0.211 HD
ENDBRANCH  50  51
ENDBRANCH  40  50
ENDBRANCH  37  40
ENDBRANCH  35  36
ENDBRANCH  33  35
ENDBRANCH   1  31
BRANCH   1  53
ATOM     53  CB  GLN A   3      19.324  -3.001  21.944  0.00  0.00    +0.039 C 
BRANCH  53  54
ATOM     54  CG  GLN A   3      17.847  -3.114  21.689  0.00  0.00    +0.087 C 
BRANCH  54  55
ATOM     55  CD  GLN A   3      17.231  -1.776  21.316  0.00  0.00    +0.219 C 
ATOM     56  NE2 GLN A   3      16.305  -1.320  22.139  0.00  0.00    -0.329 N 
ATOM     57 HE21 GLN A   3      16.048  -1.866  22.986  0.00  0.00    +0.145 HD
ATOM     58 HE22 GLN A   3      15.833  -0.415  21.940  0.00  0.00    +0.145 HD
ATOM     59  OE1 GLN A   3      17.575  -1.164  20.292  0.00  0.00    -0.275 OA
ENDBRANCH  54  55
ENDBRANCH  53  54
ENDBRANCH   1  53
TORSDOF 26
REMARK  Name = ../refined-set-2016/3n3g/3n3g_pocket.pdb
REMARK  110 active torsions:
REMARK  status: ('A' for Active; 'I' for Inactive)
REMARK    1  A    between atoms: _1  and  _3
REMARK    2  A    between atoms: _3  and  _4
REMARK    3  A    between atoms: _3  and  _6
REMARK    4  A    between atoms: _6  and  _7
REMARK    5  A    between atoms: _7  and  _8
REMARK    6  A    between atoms: _8  and  _9
REMARK    7  A    between atoms: _9  and  _10
REMARK    8  A    between atoms: _14  and  _16
REMARK    9  A    between atoms: _16  and  _17
REMARK   10  A    between atoms: _16  and  _19
REMARK   11  A    between atoms: _19  and  _20
REMARK   12  A    between atoms: _25  and  _26
REMARK   13  A    between atoms: _28  and  _30
REMARK   14  A    between atoms: _30  and  _31
REMARK   15  A    between atoms: _30  and  _33
REMARK   16  A    between atoms: _33  and  _34
REMARK   17  A    between atoms: _34  and  _35
REMARK   18  A    between atoms: _40  and  _42
REMARK   19  A    between atoms: _42  and  _43
REMARK   20  A    between atoms: _45  and  _47
REMARK   21  A    between atoms: _47  and  _48
REMARK   22  A    between atoms: _47  and  _50
REMARK   23  A    between atoms: _50  and  _51
REMARK   24  A    between atoms: _53  and  _55
REMARK   25  A    between atoms: _55  and  _56
REMARK   26  A    between atoms: _55  and  _58
REMARK   27  A    between atoms: _60  and  _62
REMARK   28  A    between atoms: _62  and  _63
REMARK   29  A    between atoms: _66  and  _68
REMARK   30  A    between atoms: _68  and  _69
REMARK   31  A    between atoms: _68  and  _71
REMARK   32  A    between atoms: _71  and  _72
REMARK   33  A    between atoms: _78  and  _80
REMARK   34  A    between atoms: _80  and  _81
REMARK   35  A    between atoms: _80  and  _83
REMARK   36  A    between atoms: _83  and  _84
REMARK   37  A    between atoms: _89  and  _90
REMARK   38  A    between atoms: _92  and  _94
REMARK   39  A    between atoms: _94  and  _95
REMARK   40  A    between atoms: _99  and  _100
REMARK   41  A    between atoms: _105  and  _107
REMARK   42  A    between atoms: _107  and  _108
REMARK   43  A    between atoms: _107  and  _110
REMARK   44  A    between atoms: _110  and  _111
REMARK   45  A    between atoms: _113  and  _115
REMARK   46  A    between atoms: _115  and  _116
REMARK   47  A    between atoms: _115  and  _118
REMARK   48  A    between atoms: _118  and  _119
REMARK   49  A    between atoms: _125  and  _127
REMARK   50  A    between atoms: _127  and  _128
REMARK   51  A    between atoms: _127  and  _130
REMARK   52  A    between atoms: _130  and  _131
REMARK   53  A    between atoms: _137  and  _139
REMARK   54  A    between atoms: _139  and  _140
REMARK   55  A    between atoms: _139  and  _142
REMARK   56  A    between atoms: _142  and  _143
REMARK   57  A    between atoms: _146  and  _148
REMARK   58  A    between atoms: _148  and  _149
REMARK   59  A    between atoms: _148  and  _151
REMARK   60  A    between atoms: _151  and  _152
REMARK   61  A    between atoms: _157  and  _158
REMARK   62  A    between atoms: _160  and  _162
REMARK   63  A    between atoms: _162  and  _163
REMARK   64  A    between atoms: _162  and  _165
REMARK   65  A    between atoms: _165  and  _166
REMARK   66  A    between atoms: _166  and  _167
REMARK   67  A    between atoms: _167  and  _168
REMARK   68  A    between atoms: _177  and  _179
REMARK   69  A    between atoms: _179  and  _180
REMARK   70  A    between atoms: _179  and  _182
REMARK   71  A    between atoms: _182  and  _183
REMARK   72  A    between atoms: _185  and  _187
REMARK   73  A    between atoms: _187  and  _188
REMARK   74  A    between atoms: _187  and  _190
REMARK   75  A    between atoms: _190  and  _191
REMARK   76  A    between atoms: _196  and  _198
REMARK   77  A    between atoms: _198  and  _199
REMARK   78  A    between atoms: _198  and  _201
REMARK   79  A    between atoms: _201  and  _202
REMARK   80  A    between atoms: _207  and  _209
REMARK   81  A    between atoms: _209  and  _210
REMARK   82  A    between atoms: _209  and  _212
REMARK   83  A    between atoms: _212  and  _213
REMARK   84  A    between atoms: _215  and  _217
REMARK   85  A    between atoms: _217  and  _218
REMARK   86  A    between atoms: _217  and  _220
REMARK   87  A    between atoms: _220  and  _221
REMARK   88  A    between atoms: _231  and  _233
REMARK   89  A    between atoms: _233  and  _234
REMARK   90  A    between atoms: _236  and  _238
REMARK   91  A    between atoms: _238  and  _239
REMARK   92  A    between atoms: _238  and  _241
REMARK   93  A    between atoms: _241  and  _242
REMARK   94  A    between atoms: _247  and  _249
REMARK   95  A    between atoms: _249  and  _250
REMARK   96  A    between atoms: _249  and  _252
REMARK   97  A    between atoms: _252  and  _253
REMARK   98  A    between atoms: _258  and  _260
REMARK   99  A    between atoms: _260  and  _261
REMARK  100  A    between atoms: _260  and  _263
REMARK  101  A    between atoms: _263  and  _264
REMARK  102  A    between atoms: _270  and  _272
REMARK  103  A    between atoms: _272  and  _273
REMARK  104  A    between atoms: _275  and  _277
REMARK  105  A    between atoms: _277  and  _278
REMARK  106  A    between atoms: _277  and  _280
REMARK  107  A    between atoms: _280  and  _281
REMARK  108  A    between atoms: _281  and  _282
REMARK  109  A    between atoms: _285  and  _287
REMARK  110  A    between atoms: _287  and  _288
REMARK                            x       y       z     vdW  Elec       q    Type
REMARK                         _______ _______ _______ _____ _____    ______ ____
ROOT
ATOM      1  CA  ALA A   1      19.780   1.647  23.890  0.00  0.00    +0.133 C 
ATOM      2  CB  ALA A   1      21.004   0.815  24.273  0.00  0.00    +0.027 C 
ENDROOT
BRANCH   1   3
ATOM      3  N   ALA A   1      18.565   0.954  24.304  0.00  0.00    -0.239 NA
ATOM      4  H   ALA A   1      18.506  -0.074  24.156  0.00  0.00    +0.142 HD
ENDBRANCH   1   3
BRANCH   1   5
ATOM      5  C   ALA A   1      19.801   1.918  22.396  0.00  0.00    +0.224 C 
ATOM      6  O   ALA A   1      20.862   2.177  21.852  0.00  0.00    -0.287 OA
ENDBRANCH   1   5
TORSDOF 2
REMARK  Name = ../refined-set-2016/3n3g/3n3g_pocket.pdb
REMARK  110 active torsions:
REMARK  status: ('A' for Active; 'I' for Inactive)
REMARK    1  A    between atoms: _1  and  _3
REMARK    2  A    between atoms: _3  and  _4
REMARK    3  A    between atoms: _3  and  _6
REMARK    4  A    between atoms: _6  and  _7
REMARK    5  A    between atoms: _7  and  _8
REMARK    6  A    between atoms: _8  and  _9
REMARK    7  A    between atoms: _9  and  _10
REMARK    8  A    between atoms: _14  and  _16
REMARK    9  A    between atoms: _16  and  _17
REMARK   10  A    between atoms: _16  and  _19
REMARK   11  A    between atoms: _19  and  _20
REMARK   12  A    between atoms: _25  and  _26
REMARK   13  A    between atoms: _28  and  _30
REMARK   14  A    between atoms: _30  and  _31
REMARK   15  A    between atoms: _30  and  _33
REMARK   16  A    between atoms: _33  and  _34
REMARK   17  A    between atoms: _34  and  _35
REMARK   18  A    between atoms: _40  and  _42
REMARK   19  A    between atoms: _42  and  _43
REMARK   20  A    between atoms: _45  and  _47
REMARK   21  A    between atoms: _47  and  _48
REMARK   22  A    between atoms: _47  and  _50
REMARK   23  A    between atoms: _50  and  _51
REMARK   24  A    between atoms: _53  and  _55
REMARK   25  A    between atoms: _55  and  _56
REMARK   26  A    between atoms: _55  and  _58
REMARK   27  A    between atoms: _60  and  _62
REMARK   28  A    between atoms: _62  and  _63
REMARK   29  A    between atoms: _66  and  _68
REMARK   30  A    between atoms: _68  and  _69
REMARK   31  A    between atoms: _68  and  _71
REMARK   32  A    between atoms: _71  and  _72
REMARK   33  A    between atoms: _78  and  _80
REMARK   34  A    between atoms: _80  and  _81
REMARK   35  A    between atoms: _80  and  _83
REMARK   36  A    between atoms: _83  and  _84
REMARK   37  A    between atoms: _89  and  _90
REMARK   38  A    between atoms: _92  and  _94
REMARK   39  A    between atoms: _94  and  _95
REMARK   40  A    between atoms: _99  and  _100
REMARK   41  A    between atoms: _105  and  _107
REMARK   42  A    between atoms: _107  and  _108
REMARK   43  A    between atoms: _107  and  _110
REMARK   44  A    between atoms: _110  and  _111
REMARK   45  A    between atoms: _113  and  _115
REMARK   46  A    between atoms: _115  and  _116
REMARK   47  A    between atoms: _115  and  _118
REMARK   48  A    between atoms: _118  and  _119
REMARK   49  A    between atoms: _125  and  _127
REMARK   50  A    between atoms: _127  and  _128
REMARK   51  A    between atoms: _127  and  _130
REMARK   52  A    between atoms: _130  and  _131
REMARK   53  A    between atoms: _137  and  _139
REMARK   54  A    between atoms: _139  and  _140
REMARK   55  A    between atoms: _139  and  _142
REMARK   56  A    between atoms: _142  and  _143
REMARK   57  A    between atoms: _146  and  _148
REMARK   58  A    between atoms: _148  and  _149
REMARK   59  A    between atoms: _148  and  _151
REMARK   60  A    between atoms: _151  and  _152
REMARK   61  A    between atoms: _157  and  _158
REMARK   62  A    between atoms: _160  and  _162
REMARK   63  A    between atoms: _162  and  _163
REMARK   64  A    between atoms: _162  and  _165
REMARK   65  A    between atoms: _165  and  _166
REMARK   66  A    between atoms: _166  and  _167
REMARK   67  A    between atoms: _167  and  _168
REMARK   68  A    between atoms: _177  and  _179
REMARK   69  A    between atoms: _179  and  _180
REMARK   70  A    between atoms: _179  and  _182
REMARK   71  A    between atoms: _182  and  _183
REMARK   72  A    between atoms: _185  and  _187
REMARK   73  A    between atoms: _187  and  _188
REMARK   74  A    between atoms: _187  and  _190
REMARK   75  A    between atoms: _190  and  _191
REMARK   76  A    between atoms: _196  and  _198
REMARK   77  A    between atoms: _198  and  _199
REMARK   78  A    between atoms: _198  and  _201
REMARK   79  A    between atoms: _201  and  _202
REMARK   80  A    between atoms: _207  and  _209
REMARK   81  A    between atoms: _209  and  _210
REMARK   82  A    between atoms: _209  and  _212
REMARK   83  A    between atoms: _212  and  _213
REMARK   84  A    between atoms: _215  and  _217
REMARK   85  A    between atoms: _217  and  _218
REMARK   86  A    between atoms: _217  and  _220
REMARK   87  A    between atoms: _220  and  _221
REMARK   88  A    between atoms: _231  and  _233
REMARK   89  A    between atoms: _233  and  _234
REMARK   90  A    between atoms: _236  and  _238
REMARK   91  A    between atoms: _238  and  _239
REMARK   92  A    between atoms: _238  and  _241
REMARK   93  A    between atoms: _241  and  _242
REMARK   94  A    between atoms: _247  and  _249
REMARK   95  A    between atoms: _249  and  _250
REMARK   96  A    between atoms: _249  and  _252
REMARK   97  A    between atoms: _252  and  _253
REMARK   98  A    between atoms: _258  and  _260
REMARK   99  A    between atoms: _260  and  _261
REMARK  100  A    between atoms: _260  and  _263
REMARK  101  A    between atoms: _263  and  _264
REMARK  102  A    between atoms: _270  and  _272
REMARK  103  A    between atoms: _272  and  _273
REMARK  104  A    between atoms: _275  and  _277
REMARK  105  A    between atoms: _277  and  _278
REMARK  106  A    between atoms: _277  and  _280
REMARK  107  A    between atoms: _280  and  _281
REMARK  108  A    between atoms: _281  and  _282
REMARK  109  A    between atoms: _285  and  _287
REMARK  110  A    between atoms: _287  and  _288
REMARK                            x       y       z     vdW  Elec       q    Type
REMARK                         _______ _______ _______ _____ _____    ______ ____
ROOT
ATOM      1  CB  PHE A   1      22.546   0.769  18.516  0.00  0.00    +0.051 C 
ENDROOT
BRANCH   1   2
ATOM      2  CG  PHE A   1      22.945  -0.291  19.501  0.00  0.00    -0.020 A 
ATOM      3  CD2 PHE A   1      22.135  -0.609  20.568  0.00  0.00    -0.004 A 
ATOM      4  CE2 PHE A   1      22.514  -1.568  21.491  0.00  0.00    -0.000 A 
ATOM      5  CZ  PHE A   1      23.720  -2.229  21.342  0.00  0.00    -0.000 A 
ATOM      6  CE1 PHE A   1      24.538  -1.928  20.269  0.00  0.00    -0.000 A 
ATOM      7  CD1 PHE A   1      24.156  -0.963  19.361  0.00  0.00    -0.004 A 
ENDBRANCH   1   2
BRANCH   1   8
ATOM      8  CA  PHE A   1      23.407   2.046  18.599  0.00  0.00    +0.137 C 
BRANCH   8   9
ATOM      9  N   PHE A   1      23.040   2.836  19.772  0.00  0.00    -0.239 NA
ATOM     10  H   PHE A   1      22.187   2.579  20.308  0.00  0.00    +0.142 HD
ENDBRANCH   8   9
BRANCH   8  11
ATOM     11  C   PHE A   1      23.312   2.849  17.306  0.00  0.00    +0.224 C 
ATOM     12  O   PHE A   1      24.148   2.698  16.419  0.00  0.00    -0.287 OA
ENDBRANCH   8  11
ENDBRANCH   1   8
TORSDOF 4
REMARK  Name = ../refined-set-2016/3n3g/3n3g_pocket.pdb
REMARK  110 active torsions:
REMARK  status: ('A' for Active; 'I' for Inactive)
REMARK    1  A    between atoms: _1  and  _3
REMARK    2  A    between atoms: _3  and  _4
REMARK    3  A    between atoms: _3  and  _6
REMARK    4  A    between atoms: _6  and  _7
REMARK    5  A    between atoms: _7  and  _8
REMARK    6  A    between atoms: _8  and  _9
REMARK    7  A    between atoms: _9  and  _10
REMARK    8  A    between atoms: _14  and  _16
REMARK    9  A    between atoms: _16  and  _17
REMARK   10  A    between atoms: _16  and  _19
REMARK   11  A    between atoms: _19  and  _20
REMARK   12  A    between atoms: _25  and  _26
REMARK   13  A    between atoms: _28  and  _30
REMARK   14  A    between atoms: _30  and  _31
REMARK   15  A    between atoms: _30  and  _33
REMARK   16  A    between atoms: _33  and  _34
REMARK   17  A    between atoms: _34  and  _35
REMARK   18  A    between atoms: _40  and  _42
REMARK   19  A    between atoms: _42  and  _43
REMARK   20  A    between atoms: _45  and  _47
REMARK   21  A    between atoms: _47  and  _48
REMARK   22  A    between atoms: _47  and  _50
REMARK   23  A    between atoms: _50  and  _51
REMARK   24  A    between atoms: _53  and  _55
REMARK   25  A    between atoms: _55  and  _56
REMARK   26  A    between atoms: _55  and  _58
REMARK   27  A    between atoms: _60  and  _62
REMARK   28  A    between atoms: _62  and  _63
REMARK   29  A    between atoms: _66  and  _68
REMARK   30  A    between atoms: _68  and  _69
REMARK   31  A    between atoms: _68  and  _71
REMARK   32  A    between atoms: _71  and  _72
REMARK   33  A    between atoms: _78  and  _80
REMARK   34  A    between atoms: _80  and  _81
REMARK   35  A    between atoms: _80  and  _83
REMARK   36  A    between atoms: _83  and  _84
REMARK   37  A    between atoms: _89  and  _90
REMARK   38  A    between atoms: _92  and  _94
REMARK   39  A    between atoms: _94  and  _95
REMARK   40  A    between atoms: _99  and  _100
REMARK   41  A    between atoms: _105  and  _107
REMARK   42  A    between atoms: _107  and  _108
REMARK   43  A    between atoms: _107  and  _110
REMARK   44  A    between atoms: _110  and  _111
REMARK   45  A    between atoms: _113  and  _115
REMARK   46  A    between atoms: _115  and  _116
REMARK   47  A    between atoms: _115  and  _118
REMARK   48  A    between atoms: _118  and  _119
REMARK   49  A    between atoms: _125  and  _127
REMARK   50  A    between atoms: _127  and  _128
REMARK   51  A    between atoms: _127  and  _130
REMARK   52  A    between atoms: _130  and  _131
REMARK   53  A    between atoms: _137  and  _139
REMARK   54  A    between atoms: _139  and  _140
REMARK   55  A    between atoms: _139  and  _142
REMARK   56  A    between atoms: _142  and  _143
REMARK   57  A    between atoms: _146  and  _148
REMARK   58  A    between atoms: _148  and  _149
REMARK   59  A    between atoms: _148  and  _151
REMARK   60  A    between atoms: _151  and  _152
REMARK   61  A    between atoms: _157  and  _158
REMARK   62  A    between atoms: _160  and  _162
REMARK   63  A    between atoms: _162  and  _163
REMARK   64  A    between atoms: _162  and  _165
REMARK   65  A    between atoms: _165  and  _166
REMARK   66  A    between atoms: _166  and  _167
REMARK   67  A    between atoms: _167  and  _168
REMARK   68  A    between atoms: _177  and  _179
REMARK   69  A    between atoms: _179  and  _180
REMARK   70  A    between atoms: _179  and  _182
REMARK   71  A    between atoms: _182  and  _183
REMARK   72  A    between atoms: _185  and  _187
REMARK   73  A    between atoms: _187  and  _188
REMARK   74  A    between atoms: _187  and  _190
REMARK   75  A    between atoms: _190  and  _191
REMARK   76  A    between atoms: _196  and  _198
REMARK   77  A    between atoms: _198  and  _199
REMARK   78  A    between atoms: _198  and  _201
REMARK   79  A    between atoms: _201  and  _202
REMARK   80  A    between atoms: _207  and  _209
REMARK   81  A    between atoms: _209  and  _210
REMARK   82  A    between atoms: _209  and  _212
REMARK   83  A    between atoms: _212  and  _213
REMARK   84  A    between atoms: _215  and  _217
REMARK   85  A    between atoms: _217  and  _218
REMARK   86  A    between atoms: _217  and  _220
REMARK   87  A    between atoms: _220  and  _221
REMARK   88  A    between atoms: _231  and  _233
REMARK   89  A    between atoms: _233  and  _234
REMARK   90  A    between atoms: _236  and  _238
REMARK   91  A    between atoms: _238  and  _239
REMARK   92  A    between atoms: _238  and  _241
REMARK   93  A    between atoms: _241  and  _242
REMARK   94  A    between atoms: _247  and  _249
REMARK   95  A    between atoms: _249  and  _250
REMARK   96  A    between atoms: _249  and  _252
REMARK   97  A    between atoms: _252  and  _253
REMARK   98  A    between atoms: _258  and  _260
REMARK   99  A    between atoms: _260  and  _261
REMARK  100  A    between atoms: _260  and  _263
REMARK  101  A    between atoms: _263  and  _264
REMARK  102  A    between atoms: _270  and  _272
REMARK  103  A    between atoms: _272  and  _273
REMARK  104  A    between atoms: _275  and  _277
REMARK  105  A    between atoms: _277  and  _278
REMARK  106  A    between atoms: _277  and  _280
REMARK  107  A    between atoms: _280  and  _281
REMARK  108  A    between atoms: _281  and  _282
REMARK  109  A    between atoms: _285  and  _287
REMARK  110  A    between atoms: _287  and  _288
REMARK                            x       y       z     vdW  Elec       q    Type
REMARK                         _______ _______ _______ _____ _____    ______ ____
ROOT
ATOM      1  CG  TYR A   1      25.234  -3.815  24.388  0.00  0.00    -0.020 A 
ATOM      2  CD2 TYR A   1      24.873  -2.531  24.777  0.00  0.00    -0.001 A 
ATOM      3  CE2 TYR A   1      23.543  -2.185  24.976  0.00  0.00    +0.036 A 
ATOM      4  CZ  TYR A   1      22.566  -3.144  24.795  0.00  0.00    +0.134 A 
ATOM      5  CE1 TYR A   1      22.904  -4.420  24.402  0.00  0.00    +0.036 A 
ATOM      6  CD1 TYR A   1      24.227  -4.749  24.196  0.00  0.00    -0.001 A 
ENDROOT
BRANCH   4   7
ATOM      7  OH  TYR A   1      21.245  -2.832  24.971  0.00  0.00    -0.506 OA
ATOM      8  HH  TYR A   1      20.859  -3.418  25.669  0.00  0.00    +0.292 HD
ENDBRANCH   4   7
BRANCH   1   9
ATOM      9  CB  TYR A   1      26.677  -4.188  24.166  0.00  0.00    +0.051 C 
BRANCH   9  10
ATOM     10  CA  TYR A   1      27.543  -4.209  25.435  0.00  0.00    +0.137 C 
BRANCH  10  11
ATOM     11  N   TYR A   1      28.932  -4.472  25.069  0.00  0.00    -0.239 NA
ATOM     12  H   TYR A   1      29.126  -4.964  24.174  0.00  0.00    +0.142 HD
ENDBRANCH  10  11
BRANCH  10  13
ATOM     13  C   TYR A   1      27.036  -5.247  26.440  0.00  0.00    +0.224 C 
ATOM     14  O   TYR A   1      27.233  -6.447  26.259  0.00  0.00    -0.287 OA
ENDBRANCH  10  13
ENDBRANCH   9  10
ENDBRANCH   1   9
TORSDOF 5
REMARK  Name = ../refined-set-2016/3n3g/3n3g_pocket.pdb
REMARK  110 active torsions:
REMARK  status: ('A' for Active; 'I' for Inactive)
REMARK    1  A    between atoms: _1  and  _3
REMARK    2  A    between atoms: _3  and  _4
REMARK    3  A    between atoms: _3  and  _6
REMARK    4  A    between atoms: _6  and  _7
REMARK    5  A    between atoms: _7  and  _8
REMARK    6  A    between atoms: _8  and  _9
REMARK    7  A    between atoms: _9  and  _10
REMARK    8  A    between atoms: _14  and  _16
REMARK    9  A    between atoms: _16  and  _17
REMARK   10  A    between atoms: _16  and  _19
REMARK   11  A    between atoms: _19  and  _20
REMARK   12  A    between atoms: _25  and  _26
REMARK   13  A    between atoms: _28  and  _30
REMARK   14  A    between atoms: _30  and  _31
REMARK   15  A    between atoms: _30  and  _33
REMARK   16  A    between atoms: _33  and  _34
REMARK   17  A    between atoms: _34  and  _35
REMARK   18  A    between atoms: _40  and  _42
REMARK   19  A    between atoms: _42  and  _43
REMARK   20  A    between atoms: _45  and  _47
REMARK   21  A    between atoms: _47  and  _48
REMARK   22  A    between atoms: _47  and  _50
REMARK   23  A    between atoms: _50  and  _51
REMARK   24  A    between atoms: _53  and  _55
REMARK   25  A    between atoms: _55  and  _56
REMARK   26  A    between atoms: _55  and  _58
REMARK   27  A    between atoms: _60  and  _62
REMARK   28  A    between atoms: _62  and  _63
REMARK   29  A    between atoms: _66  and  _68
REMARK   30  A    between atoms: _68  and  _69
REMARK   31  A    between atoms: _68  and  _71
REMARK   32  A    between atoms: _71  and  _72
REMARK   33  A    between atoms: _78  and  _80
REMARK   34  A    between atoms: _80  and  _81
REMARK   35  A    between atoms: _80  and  _83
REMARK   36  A    between atoms: _83  and  _84
REMARK   37  A    between atoms: _89  and  _90
REMARK   38  A    between atoms: _92  and  _94
REMARK   39  A    between atoms: _94  and  _95
REMARK   40  A    between atoms: _99  and  _100
REMARK   41  A    between atoms: _105  and  _107
REMARK   42  A    between atoms: _107  and  _108
REMARK   43  A    between atoms: _107  and  _110
REMARK   44  A    between atoms: _110  and  _111
REMARK   45  A    between atoms: _113  and  _115
REMARK   46  A    between atoms: _115  and  _116
REMARK   47  A    between atoms: _115  and  _118
REMARK   48  A    between atoms: _118  and  _119
REMARK   49  A    between atoms: _125  and  _127
REMARK   50  A    between atoms: _127  and  _128
REMARK   51  A    between atoms: _127  and  _130
REMARK   52  A    between atoms: _130  and  _131
REMARK   53  A    between atoms: _137  and  _139
REMARK   54  A    between atoms: _139  and  _140
REMARK   55  A    between atoms: _139  and  _142
REMARK   56  A    between atoms: _142  and  _143
REMARK   57  A    between atoms: _146  and  _148
REMARK   58  A    between atoms: _148  and  _149
REMARK   59  A    between atoms: _148  and  _151
REMARK   60  A    between atoms: _151  and  _152
REMARK   61  A    between atoms: _157  and  _158
REMARK   62  A    between atoms: _160  and  _162
REMARK   63  A    between atoms: _162  and  _163
REMARK   64  A    between atoms: _162  and  _165
REMARK   65  A    between atoms: _165  and  _166
REMARK   66  A    between atoms: _166  and  _167
REMARK   67  A    between atoms: _167  and  _168
REMARK   68  A    between atoms: _177  and  _179
REMARK   69  A    between atoms: _179  and  _180
REMARK   70  A    between atoms: _179  and  _182
REMARK   71  A    between atoms: _182  and  _183
REMARK   72  A    between atoms: _185  and  _187
REMARK   73  A    between atoms: _187  and  _188
REMARK   74  A    between atoms: _187  and  _190
REMARK   75  A    between atoms: _190  and  _191
REMARK   76  A    between atoms: _196  and  _198
REMARK   77  A    between atoms: _198  and  _199
REMARK   78  A    between atoms: _198  and  _201
REMARK   79  A    between atoms: _201  and  _202
REMARK   80  A    between atoms: _207  and  _209
REMARK   81  A    between atoms: _209  and  _210
REMARK   82  A    between atoms: _209  and  _212
REMARK   83  A    between atoms: _212  and  _213
REMARK   84  A    between atoms: _215  and  _217
REMARK   85  A    between atoms: _217  and  _218
REMARK   86  A    between atoms: _217  and  _220
REMARK   87  A    between atoms: _220  and  _221
REMARK   88  A    between atoms: _231  and  _233
REMARK   89  A    between atoms: _233  and  _234
REMARK   90  A    between atoms: _236  and  _238
REMARK   91  A    between atoms: _238  and  _239
REMARK   92  A    between atoms: _238  and  _241
REMARK   93  A    between atoms: _241  and  _242
REMARK   94  A    between atoms: _247  and  _249
REMARK   95  A    between atoms: _249  and  _250
REMARK   96  A    between atoms: _249  and  _252
REMARK   97  A    between atoms: _252  and  _253
REMARK   98  A    between atoms: _258  and  _260
REMARK   99  A    between atoms: _260  and  _261
REMARK  100  A    between atoms: _260  and  _263
REMARK  101  A    between atoms: _263  and  _264
REMARK  102  A    between atoms: _270  and  _272
REMARK  103  A    between atoms: _272  and  _273
REMARK  104  A    between atoms: _275  and  _277
REMARK  105  A    between atoms: _277  and  _278
REMARK  106  A    between atoms: _277  and  _280
REMARK  107  A    between atoms: _280  and  _281
REMARK  108  A    between atoms: _281  and  _282
REMARK  109  A    between atoms: _285  and  _287
REMARK  110  A    between atoms: _287  and  _288
REMARK                            x       y       z     vdW  Elec       q    Type
REMARK                         _______ _______ _______ _____ _____    ______ ____
ROOT
ATOM      1  CA  ALA A   1       8.200   2.066  15.846  0.00  0.00    +0.133 C 
ATOM      2  CB  ALA A   1       9.620   1.652  16.169  0.00  0.00    +0.027 C 
ENDROOT
BRANCH   1   3
ATOM      3  N   ALA A   1       8.095   3.516  15.903  0.00  0.00    -0.239 NA
ATOM      4  H   ALA A   1       8.393   4.003  16.772  0.00  0.00    +0.142 HD
ENDBRANCH   1   3
BRANCH   1   5
ATOM      5  C   ALA A   1       7.196   1.402  16.802  0.00  0.00    +0.224 C 
ATOM      6  O   ALA A   1       7.305   0.209  17.095  0.00  0.00    -0.287 OA
ENDBRANCH   1   5
TORSDOF 2
REMARK  Name = ../refined-set-2016/3n3g/3n3g_pocket.pdb
REMARK  110 active torsions:
REMARK  status: ('A' for Active; 'I' for Inactive)
REMARK    1  A    between atoms: _1  and  _3
REMARK    2  A    between atoms: _3  and  _4
REMARK    3  A    between atoms: _3  and  _6
REMARK    4  A    between atoms: _6  and  _7
REMARK    5  A    between atoms: _7  and  _8
REMARK    6  A    between atoms: _8  and  _9
REMARK    7  A    between atoms: _9  and  _10
REMARK    8  A    between atoms: _14  and  _16
REMARK    9  A    between atoms: _16  and  _17
REMARK   10  A    between atoms: _16  and  _19
REMARK   11  A    between atoms: _19  and  _20
REMARK   12  A    between atoms: _25  and  _26
REMARK   13  A    between atoms: _28  and  _30
REMARK   14  A    between atoms: _30  and  _31
REMARK   15  A    between atoms: _30  and  _33
REMARK   16  A    between atoms: _33  and  _34
REMARK   17  A    between atoms: _34  and  _35
REMARK   18  A    between atoms: _40  and  _42
REMARK   19  A    between atoms: _42  and  _43
REMARK   20  A    between atoms: _45  and  _47
REMARK   21  A    between atoms: _47  and  _48
REMARK   22  A    between atoms: _47  and  _50
REMARK   23  A    between atoms: _50  and  _51
REMARK   24  A    between atoms: _53  and  _55
REMARK   25  A    between atoms: _55  and  _56
REMARK   26  A    between atoms: _55  and  _58
REMARK   27  A    between atoms: _60  and  _62
REMARK   28  A    between atoms: _62  and  _63
REMARK   29  A    between atoms: _66  and  _68
REMARK   30  A    between atoms: _68  and  _69
REMARK   31  A    between atoms: _68  and  _71
REMARK   32  A    between atoms: _71  and  _72
REMARK   33  A    between atoms: _78  and  _80
REMARK   34  A    between atoms: _80  and  _81
REMARK   35  A    between atoms: _80  and  _83
REMARK   36  A    between atoms: _83  and  _84
REMARK   37  A    between atoms: _89  and  _90
REMARK   38  A    between atoms: _92  and  _94
REMARK   39  A    between atoms: _94  and  _95
REMARK   40  A    between atoms: _99  and  _100
REMARK   41  A    between atoms: _105  and  _107
REMARK   42  A    between atoms: _107  and  _108
REMARK   43  A    between atoms: _107  and  _110
REMARK   44  A    between atoms: _110  and  _111
REMARK   45  A    between atoms: _113  and  _115
REMARK   46  A    between atoms: _115  and  _116
REMARK   47  A    between atoms: _115  and  _118
REMARK   48  A    between atoms: _118  and  _119
REMARK   49  A    between atoms: _125  and  _127
REMARK   50  A    between atoms: _127  and  _128
REMARK   51  A    between atoms: _127  and  _130
REMARK   52  A    between atoms: _130  and  _131
REMARK   53  A    between atoms: _137  and  _139
REMARK   54  A    between atoms: _139  and  _140
REMARK   55  A    between atoms: _139  and  _142
REMARK   56  A    between atoms: _142  and  _143
REMARK   57  A    between atoms: _146  and  _148
REMARK   58  A    between atoms: _148  and  _149
REMARK   59  A    between atoms: _148  and  _151
REMARK   60  A    between atoms: _151  and  _152
REMARK   61  A    between atoms: _157  and  _158
REMARK   62  A    between atoms: _160  and  _162
REMARK   63  A    between atoms: _162  and  _163
REMARK   64  A    between atoms: _162  and  _165
REMARK   65  A    between atoms: _165  and  _166
REMARK   66  A    between atoms: _166  and  _167
REMARK   67  A    between atoms: _167  and  _168
REMARK   68  A    between atoms: _177  and  _179
REMARK   69  A    between atoms: _179  and  _180
REMARK   70  A    between atoms: _179  and  _182
REMARK   71  A    between atoms: _182  and  _183
REMARK   72  A    between atoms: _185  and  _187
REMARK   73  A    between atoms: _187  and  _188
REMARK   74  A    between atoms: _187  and  _190
REMARK   75  A    between atoms: _190  and  _191
REMARK   76  A    between atoms: _196  and  _198
REMARK   77  A    between atoms: _198  and  _199
REMARK   78  A    between atoms: _198  and  _201
REMARK   79  A    between atoms: _201  and  _202
REMARK   80  A    between atoms: _207  and  _209
REMARK   81  A    between atoms: _209  and  _210
REMARK   82  A    between atoms: _209  and  _212
REMARK   83  A    between atoms: _212  and  _213
REMARK   84  A    between atoms: _215  and  _217
REMARK   85  A    between atoms: _217  and  _218
REMARK   86  A    between atoms: _217  and  _220
REMARK   87  A    between atoms: _220  and  _221
REMARK   88  A    between atoms: _231  and  _233
REMARK   89  A    between atoms: _233  and  _234
REMARK   90  A    between atoms: _236  and  _238
REMARK   91  A    between atoms: _238  and  _239
REMARK   92  A    between atoms: _238  and  _241
REMARK   93  A    between atoms: _241  and  _242
REMARK   94  A    between atoms: _247  and  _249
REMARK   95  A    between atoms: _249  and  _250
REMARK   96  A    between atoms: _249  and  _252
REMARK   97  A    between atoms: _252  and  _253
REMARK   98  A    between atoms: _258  and  _260
REMARK   99  A    between atoms: _260  and  _261
REMARK  100  A    between atoms: _260  and  _263
REMARK  101  A    between atoms: _263  and  _264
REMARK  102  A    between atoms: _270  and  _272
REMARK  103  A    between atoms: _272  and  _273
REMARK  104  A    between atoms: _275  and  _277
REMARK  105  A    between atoms: _277  and  _278
REMARK  106  A    between atoms: _277  and  _280
REMARK  107  A    between atoms: _280  and  _281
REMARK  108  A    between atoms: _281  and  _282
REMARK  109  A    between atoms: _285  and  _287
REMARK  110  A    between atoms: _287  and  _288
REMARK                            x       y       z     vdW  Elec       q    Type
REMARK                         _______ _______ _______ _____ _____    ______ ____
ROOT
ATOM      1  CA  LEU A   5       6.384  -8.326  12.702  0.00  0.00    +0.149 C 
ENDROOT
BRANCH   1   2
ATOM      2  C   LEU A   5       6.929  -8.216  11.280  0.00  0.00    +0.241 C 
ATOM      3  N   TYR A   6       7.555  -7.086  10.950  0.00  0.00    -0.297 N 
ATOM      4  H   TYR A   6       7.673  -6.341  11.666  0.00  0.00    +0.150 HD
ATOM      5  O   LEU A   5       6.782  -9.151  10.485  0.00  0.00    -0.273 OA
BRANCH   3   6
ATOM      6  CA  TYR A   6       8.078  -6.873   9.603  0.00  0.00    +0.153 C 
BRANCH   6   7
ATOM      7  C   TYR A   6       9.046  -7.991   9.189  0.00  0.00    +0.241 C 
ATOM      8  O   TYR A   6       9.920  -8.384   9.965  0.00  0.00    -0.273 OA
ATOM      9  N   ARG A   7       8.867  -8.492   7.966  0.00  0.00    -0.297 N 
ATOM     10  H   ARG A   7       8.085  -8.126   7.387  0.00  0.00    +0.150 HD
BRANCH   9  11
ATOM     11  CA  ARG A   7       9.727  -9.536   7.406  0.00  0.00    +0.149 C 
BRANCH  11  12
ATOM     12  C   ARG A   7      10.466  -9.126   6.151  0.00  0.00    +0.241 C 
ATOM     13  O   ARG A   7      11.623  -9.480   5.986  0.00  0.00    -0.273 OA
ATOM     14  N   SER A   8       9.790  -8.443   5.239  0.00  0.00    -0.296 N 
ATOM     15  H   SER A   8       8.817  -8.136   5.443  0.00  0.00    +0.150 HD
BRANCH  14  16
ATOM     16  CA  SER A   8      10.391  -8.117   3.956  0.00  0.00    +0.166 C 
BRANCH  16  17
ATOM     17  CB  SER A   8       9.593  -7.094   3.176  0.00  0.00    +0.229 C 
ATOM     18  OG  SER A   8       8.428  -6.834   3.478  0.00  0.00    -0.286 OA
ENDBRANCH  16  17
BRANCH  16  19
ATOM     19  C   SER A   8      10.536  -9.383   3.103  0.00  0.00    +0.165 C 
BRANCH  19  20
ATOM     20  O   SER A   8       9.278  -9.993   2.904  0.00  0.00    -0.380 OA
ATOM     21  H   SER A   8       9.391 -10.807   2.352  0.00  0.00    +0.211 HD
ENDBRANCH  19  20
ENDBRANCH  16  19
ENDBRANCH  14  16
ENDBRANCH  11  12
BRANCH  11  22
ATOM     22  CB  ARG A   7       8.913 -10.789   7.059  0.00  0.00    +0.033 C 
BRANCH  22  23
ATOM     23  CG  ARG A   7       8.249 -11.460   8.217  0.00  0.00    +0.045 C 
BRANCH  23  24
ATOM     24  CD  ARG A   7       9.245 -11.909   9.263  0.00  0.00    +0.174 C 
BRANCH  24  25
ATOM     25  NE  ARG A   7      10.154 -12.970   8.817  0.00  0.00    -0.265 N 
ATOM     26  CZ  ARG A   7      11.486 -12.976   8.960  0.00  0.00    +0.342 C 
ATOM     27  NH2 ARG A   7      12.145 -11.962   9.540  0.00  0.00    -0.292 N 
ATOM     28 HH21 ARG A   7      11.621 -11.137   9.896  0.00  0.00    +0.255 HD
ATOM     29 HH22 ARG A   7      13.180 -12.001   9.634  0.00  0.00    +0.255 HD
ATOM     30  NH1 ARG A   7      12.174 -14.028   8.515  0.00  0.00    -0.292 N 
ATOM     31 HH11 ARG A   7      13.209 -14.053   8.616  0.00  0.00    +0.255 HD
ATOM     32 HH12 ARG A   7      11.676 -14.823   8.067  0.00  0.00    +0.255 HD
ATOM     33  HE  ARG A   7       9.725 -13.793   8.347  0.00  0.00    +0.259 HD
ENDBRANCH  24  25
ENDBRANCH  23  24
ENDBRANCH  22  23
ENDBRANCH  11  22
ENDBRANCH   9  11
ENDBRANCH   6   7
BRANCH   6  34
ATOM     34  CB  TYR A   6       8.765  -5.506   9.505  0.00  0.00    +0.055 C 
BRANCH  34  35
ATOM     35  CG  TYR A   6       9.564  -5.312   8.233  0.00  0.00    -0.020 A 
ATOM     36  CD2 TYR A   6      10.945  -5.541   8.222  0.00  0.00    -0.001 A 
ATOM     37  CE2 TYR A   6      11.693  -5.382   7.063  0.00  0.00    +0.036 A 
ATOM     38  CZ  TYR A   6      11.065  -4.988   5.887  0.00  0.00    +0.134 A 
ATOM     39  CE1 TYR A   6       9.689  -4.757   5.865  0.00  0.00    +0.036 A 
ATOM     40  CD1 TYR A   6       8.944  -4.932   7.042  0.00  0.00    -0.001 A 
BRANCH  38  41
ATOM     41  OH  TYR A   6      11.830  -4.837   4.756  0.00  0.00    -0.506 OA
ATOM     42  HH  TYR A   6      11.760  -3.904   4.434  0.00  0.00    +0.292 HD
ENDBRANCH  38  41
ENDBRANCH  34  35
ENDBRANCH   6  34
ENDBRANCH   3   6
ENDBRANCH   1   2
BRANCH   1  45
ATOM     43  C   PHE A   4       7.789  -7.010  14.226  0.00  0.00    +0.241 C 
ATOM     44  O   PHE A   4       8.753  -7.787  14.143  0.00  0.00    -0.273 OA
ATOM     45  N   LEU A   5       6.666  -7.154  13.523  0.00  0.00    -0.297 N 
ATOM     46  H   LEU A   5       5.957  -6.394  13.562  0.00  0.00    +0.150 HD
BRANCH  43  47
ATOM     47  CA  PHE A   4       7.849  -5.783  15.148  0.00  0.00    +0.153 C 
BRANCH  47  49
ATOM     48  C   PHE A   3       7.784  -4.057  13.370  0.00  0.00    +0.241 C 
ATOM     49  N   PHE A   4       7.303  -4.569  14.506  0.00  0.00    -0.297 N 
ATOM     50  H   PHE A   4       6.502  -4.088  14.963  0.00  0.00    +0.150 HD
ATOM     51  O   PHE A   3       8.766  -4.511  12.783  0.00  0.00    -0.273 OA
BRANCH  48  52
ATOM     52  CA  PHE A   3       7.019  -2.864  12.785  0.00  0.00    +0.153 C 
BRANCH  52  54
ATOM     53  C   SER A   2       5.012  -4.054  12.028  0.00  0.00    +0.243 C 
ATOM     54  N   PHE A   3       5.584  -3.135  12.805  0.00  0.00    -0.297 N 
ATOM     55  H   PHE A   3       4.983  -2.587  13.453  0.00  0.00    +0.150 HD
ATOM     56  O   SER A   2       5.637  -4.737  11.217  0.00  0.00    -0.273 OA
BRANCH  53  57
ATOM     57  CA  SER A   2       3.494  -4.225  12.171  0.00  0.00    +0.178 C 
BRANCH  57  60
ATOM     58  C   PRO A   1       3.481  -4.688  14.567  0.00  0.00    +0.239 C 
ATOM     59  O   PRO A   1       4.318  -5.568  14.442  0.00  0.00    -0.274 OA
ATOM     60  N   SER A   2       3.004  -3.994  13.539  0.00  0.00    -0.295 N 
ATOM     61  H   SER A   2       2.271  -3.275  13.704  0.00  0.00    +0.150 HD
BRANCH  58  66
ATOM     62  N   PRO A   1       2.614  -2.936  16.148  0.00  0.00    -0.210 NA
ATOM     63  CD  PRO A   1       1.241  -2.741  16.648  0.00  0.00    +0.089 C 
ATOM     64  CG  PRO A   1       0.770  -4.127  16.950  0.00  0.00    +0.021 C 
ATOM     65  CB  PRO A   1       1.607  -5.069  16.177  0.00  0.00    +0.028 C 
ATOM     66  CA  PRO A   1       2.941  -4.358  15.957  0.00  0.00    +0.149 C 
ENDBRANCH  58  66
ENDBRANCH  57  60
BRANCH  57  67
ATOM     67  CB  SER A   2       2.785  -3.305  11.182  0.00  0.00    +0.166 C 
BRANCH  67  68
ATOM     68  OG  SER A   2       3.047  -1.946  11.490  0.00  0.00    -0.380 OA
ATOM     69  H   SER A   2       2.579  -1.365  10.839  0.00  0.00    +0.211 HD
ENDBRANCH  67  68
ENDBRANCH  57  67
ENDBRANCH  53  57
ENDBRANCH  52  54
BRANCH  52  70
ATOM     70  CB  PHE A   3       7.318  -1.575  13.560  0.00  0.00    +0.055 C 
BRANCH  70  71
ATOM     71  CG  PHE A   3       8.732  -1.091  13.412  0.00  0.00    -0.020 A 
ATOM     72  CD2 PHE A   3       9.728  -1.552  14.268  0.00  0.00    -0.004 A 
ATOM     73  CE2 PHE A   3      11.043  -1.119  14.140  0.00  0.00    -0.000 A 
ATOM     74  CZ  PHE A   3      11.369  -0.216  13.146  0.00  0.00    -0.000 A 
ATOM     75  CE1 PHE A   3      10.379   0.258  12.286  0.00  0.00    -0.000 A 
ATOM     76  CD1 PHE A   3       9.068  -0.186  12.417  0.00  0.00    -0.004 A 
ENDBRANCH  70  71
ENDBRANCH  52  70
ENDBRANCH  48  52
ENDBRANCH  47  49
BRANCH  47  77
ATOM     77  CB  PHE A   4       7.082  -6.108  16.432  0.00  0.00    +0.055 C 
BRANCH  77  78
ATOM     78  CG  PHE A   4       7.369  -5.173  17.581  0.00  0.00    -0.020 A 
ATOM     79  CD2 PHE A   4       8.046  -5.628  18.698  0.00  0.00    -0.004 A 
ATOM     80  CE2 PHE A   4       8.311  -4.777  19.774  0.00  0.00    -0.000 A 
ATOM     81  CZ  PHE A   4       7.876  -3.461  19.736  0.00  0.00    -0.000 A 
ATOM     82  CE1 PHE A   4       7.189  -2.996  18.627  0.00  0.00    -0.000 A 
ATOM     83  CD1 PHE A   4       6.929  -3.847  17.563  0.00  0.00    -0.004 A 
ENDBRANCH  77  78
ENDBRANCH  47  77
ENDBRANCH  43  47
ENDBRANCH   1  45
BRANCH   1  84
ATOM     84  CB  LEU A   5       4.868  -8.582  12.644  0.00  0.00    +0.029 C 
BRANCH  84  85
ATOM     85  CG  LEU A   5       4.160  -8.936  13.953  0.00  0.00    +0.002 C 
ATOM     86  CD2 LEU A   5       4.675 -10.261  14.500  0.00  0.00    +0.000 C 
ATOM     87  CD1 LEU A   5       2.656  -8.968  13.756  0.00  0.00    +0.000 C 
ENDBRANCH  84  85
ENDBRANCH   1  84
TORSDOF 32
REMARK  Name = ../refined-set-2016/3n3g/3n3g_pocket.pdb
REMARK  110 active torsions:
REMARK  status: ('A' for Active; 'I' for Inactive)
REMARK    1  A    between atoms: _1  and  _3
REMARK    2  A    between atoms: _3  and  _4
REMARK    3  A    between atoms: _3  and  _6
REMARK    4  A    between atoms: _6  and  _7
REMARK    5  A    between atoms: _7  and  _8
REMARK    6  A    between atoms: _8  and  _9
REMARK    7  A    between atoms: _9  and  _10
REMARK    8  A    between atoms: _14  and  _16
REMARK    9  A    between atoms: _16  and  _17
REMARK   10  A    between atoms: _16  and  _19
REMARK   11  A    between atoms: _19  and  _20
REMARK   12  A    between atoms: _25  and  _26
REMARK   13  A    between atoms: _28  and  _30
REMARK   14  A    between atoms: _30  and  _31
REMARK   15  A    between atoms: _30  and  _33
REMARK   16  A    between atoms: _33  and  _34
REMARK   17  A    between atoms: _34  and  _35
REMARK   18  A    between atoms: _40  and  _42
REMARK   19  A    between atoms: _42  and  _43
REMARK   20  A    between atoms: _45  and  _47
REMARK   21  A    between atoms: _47  and  _48
REMARK   22  A    between atoms: _47  and  _50
REMARK   23  A    between atoms: _50  and  _51
REMARK   24  A    between atoms: _53  and  _55
REMARK   25  A    between atoms: _55  and  _56
REMARK   26  A    between atoms: _55  and  _58
REMARK   27  A    between atoms: _60  and  _62
REMARK   28  A    between atoms: _62  and  _63
REMARK   29  A    between atoms: _66  and  _68
REMARK   30  A    between atoms: _68  and  _69
REMARK   31  A    between atoms: _68  and  _71
REMARK   32  A    between atoms: _71  and  _72
REMARK   33  A    between atoms: _78  and  _80
REMARK   34  A    between atoms: _80  and  _81
REMARK   35  A    between atoms: _80  and  _83
REMARK   36  A    between atoms: _83  and  _84
REMARK   37  A    between atoms: _89  and  _90
REMARK   38  A    between atoms: _92  and  _94
REMARK   39  A    between atoms: _94  and  _95
REMARK   40  A    between atoms: _99  and  _100
REMARK   41  A    between atoms: _105  and  _107
REMARK   42  A    between atoms: _107  and  _108
REMARK   43  A    between atoms: _107  and  _110
REMARK   44  A    between atoms: _110  and  _111
REMARK   45  A    between atoms: _113  and  _115
REMARK   46  A    between atoms: _115  and  _116
REMARK   47  A    between atoms: _115  and  _118
REMARK   48  A    between atoms: _118  and  _119
REMARK   49  A    between atoms: _125  and  _127
REMARK   50  A    between atoms: _127  and  _128
REMARK   51  A    between atoms: _127  and  _130
REMARK   52  A    between atoms: _130  and  _131
REMARK   53  A    between atoms: _137  and  _139
REMARK   54  A    between atoms: _139  and  _140
REMARK   55  A    between atoms: _139  and  _142
REMARK   56  A    between atoms: _142  and  _143
REMARK   57  A    between atoms: _146  and  _148
REMARK   58  A    between atoms: _148  and  _149
REMARK   59  A    between atoms: _148  and  _151
REMARK   60  A    between atoms: _151  and  _152
REMARK   61  A    between atoms: _157  and  _158
REMARK   62  A    between atoms: _160  and  _162
REMARK   63  A    between atoms: _162  and  _163
REMARK   64  A    between atoms: _162  and  _165
REMARK   65  A    between atoms: _165  and  _166
REMARK   66  A    between atoms: _166  and  _167
REMARK   67  A    between atoms: _167  and  _168
REMARK   68  A    between atoms: _177  and  _179
REMARK   69  A    between atoms: _179  and  _180
REMARK   70  A    between atoms: _179  and  _182
REMARK   71  A    between atoms: _182  and  _183
REMARK   72  A    between atoms: _185  and  _187
REMARK   73  A    between atoms: _187  and  _188
REMARK   74  A    between atoms: _187  and  _190
REMARK   75  A    between atoms: _190  and  _191
REMARK   76  A    between atoms: _196  and  _198
REMARK   77  A    between atoms: _198  and  _199
REMARK   78  A    between atoms: _198  and  _201
REMARK   79  A    between atoms: _201  and  _202
REMARK   80  A    between atoms: _207  and  _209
REMARK   81  A    between atoms: _209  and  _210
REMARK   82  A    between atoms: _209  and  _212
REMARK   83  A    between atoms: _212  and  _213
REMARK   84  A    between atoms: _215  and  _217
REMARK   85  A    between atoms: _217  and  _218
REMARK   86  A    between atoms: _217  and  _220
REMARK   87  A    between atoms: _220  and  _221
REMARK   88  A    between atoms: _231  and  _233
REMARK   89  A    between atoms: _233  and  _234
REMARK   90  A    between atoms: _236  and  _238
REMARK   91  A    between atoms: _238  and  _239
REMARK   92  A    between atoms: _238  and  _241
REMARK   93  A    between atoms: _241  and  _242
REMARK   94  A    between atoms: _247  and  _249
REMARK   95  A    between atoms: _249  and  _250
REMARK   96  A    between atoms: _249  and  _252
REMARK   97  A    between atoms: _252  and  _253
REMARK   98  A    between atoms: _258  and  _260
REMARK   99  A    between atoms: _260  and  _261
REMARK  100  A    between atoms: _260  and  _263
REMARK  101  A    between atoms: _263  and  _264
REMARK  102  A    between atoms: _270  and  _272
REMARK  103  A    between atoms: _272  and  _273
REMARK  104  A    between atoms: _275  and  _277
REMARK  105  A    between atoms: _277  and  _278
REMARK  106  A    between atoms: _277  and  _280
REMARK  107  A    between atoms: _280  and  _281
REMARK  108  A    between atoms: _281  and  _282
REMARK  109  A    between atoms: _285  and  _287
REMARK  110  A    between atoms: _287  and  _288
REMARK                            x       y       z     vdW  Elec       q    Type
REMARK                         _______ _______ _______ _____ _____    ______ ____
ROOT
ATOM      1  CB  HIS A   1      12.220   3.411  17.727  0.00  0.00    +0.072 C 
ENDROOT
BRANCH   1   2
ATOM      2  CG  HIS A   1      13.115   2.225  17.545  0.00  0.00    +0.082 A 
ATOM      3  ND1 HIS A   1      13.728   1.587  18.603  0.00  0.00    -0.227 NA
ATOM      4  CE1 HIS A   1      14.470   0.596  18.145  0.00  0.00    +0.199 A 
ATOM      5  NE2 HIS A   1      14.342   0.550  16.831  0.00  0.00    -0.221 NA
ATOM      6  CD2 HIS A   1      13.508   1.567  16.428  0.00  0.00    +0.115 A 
ENDBRANCH   1   2
BRANCH   1   7
ATOM      7  CA  HIS A   1      12.933   4.640  18.316  0.00  0.00    +0.139 C 
BRANCH   7   8
ATOM      8  N   HIS A   1      11.979   5.712  18.519  0.00  0.00    -0.239 NA
ATOM      9  H   HIS A   1      11.839   6.412  17.763  0.00  0.00    +0.142 HD
ENDBRANCH   7   8
BRANCH   7  10
ATOM     10  C   HIS A   1      14.046   5.122  17.397  0.00  0.00    +0.224 C 
ATOM     11  O   HIS A   1      13.777   5.583  16.293  0.00  0.00    -0.287 OA
ENDBRANCH   7  10
ENDBRANCH   1   7
TORSDOF 4
REMARK  Name = ../refined-set-2016/3n3g/3n3g_pocket.pdb
REMARK  110 active torsions:
REMARK  status: ('A' for Active; 'I' for Inactive)
REMARK    1  A    between atoms: _1  and  _3
REMARK    2  A    between atoms: _3  and  _4
REMARK    3  A    between atoms: _3  and  _6
REMARK    4  A    between atoms: _6  and  _7
REMARK    5  A    between atoms: _7  and  _8
REMARK    6  A    between atoms: _8  and  _9
REMARK    7  A    between atoms: _9  and  _10
REMARK    8  A    between atoms: _14  and  _16
REMARK    9  A    between atoms: _16  and  _17
REMARK   10  A    between atoms: _16  and  _19
REMARK   11  A    between atoms: _19  and  _20
REMARK   12  A    between atoms: _25  and  _26
REMARK   13  A    between atoms: _28  and  _30
REMARK   14  A    between atoms: _30  and  _31
REMARK   15  A    between atoms: _30  and  _33
REMARK   16  A    between atoms: _33  and  _34
REMARK   17  A    between atoms: _34  and  _35
REMARK   18  A    between atoms: _40  and  _42
REMARK   19  A    between atoms: _42  and  _43
REMARK   20  A    between atoms: _45  and  _47
REMARK   21  A    between atoms: _47  and  _48
REMARK   22  A    between atoms: _47  and  _50
REMARK   23  A    between atoms: _50  and  _51
REMARK   24  A    between atoms: _53  and  _55
REMARK   25  A    between atoms: _55  and  _56
REMARK   26  A    between atoms: _55  and  _58
REMARK   27  A    between atoms: _60  and  _62
REMARK   28  A    between atoms: _62  and  _63
REMARK   29  A    between atoms: _66  and  _68
REMARK   30  A    between atoms: _68  and  _69
REMARK   31  A    between atoms: _68  and  _71
REMARK   32  A    between atoms: _71  and  _72
REMARK   33  A    between atoms: _78  and  _80
REMARK   34  A    between atoms: _80  and  _81
REMARK   35  A    between atoms: _80  and  _83
REMARK   36  A    between atoms: _83  and  _84
REMARK   37  A    between atoms: _89  and  _90
REMARK   38  A    between atoms: _92  and  _94
REMARK   39  A    between atoms: _94  and  _95
REMARK   40  A    between atoms: _99  and  _100
REMARK   41  A    between atoms: _105  and  _107
REMARK   42  A    between atoms: _107  and  _108
REMARK   43  A    between atoms: _107  and  _110
REMARK   44  A    between atoms: _110  and  _111
REMARK   45  A    between atoms: _113  and  _115
REMARK   46  A    between atoms: _115  and  _116
REMARK   47  A    between atoms: _115  and  _118
REMARK   48  A    between atoms: _118  and  _119
REMARK   49  A    between atoms: _125  and  _127
REMARK   50  A    between atoms: _127  and  _128
REMARK   51  A    between atoms: _127  and  _130
REMARK   52  A    between atoms: _130  and  _131
REMARK   53  A    between atoms: _137  and  _139
REMARK   54  A    between atoms: _139  and  _140
REMARK   55  A    between atoms: _139  and  _142
REMARK   56  A    between atoms: _142  and  _143
REMARK   57  A    between atoms: _146  and  _148
REMARK   58  A    between atoms: _148  and  _149
REMARK   59  A    between atoms: _148  and  _151
REMARK   60  A    between atoms: _151  and  _152
REMARK   61  A    between atoms: _157  and  _158
REMARK   62  A    between atoms: _160  and  _162
REMARK   63  A    between atoms: _162  and  _163
REMARK   64  A    between atoms: _162  and  _165
REMARK   65  A    between atoms: _165  and  _166
REMARK   66  A    between atoms: _166  and  _167
REMARK   67  A    between atoms: _167  and  _168
REMARK   68  A    between atoms: _177  and  _179
REMARK   69  A    between atoms: _179  and  _180
REMARK   70  A    between atoms: _179  and  _182
REMARK   71  A    between atoms: _182  and  _183
REMARK   72  A    between atoms: _185  and  _187
REMARK   73  A    between atoms: _187  and  _188
REMARK   74  A    between atoms: _187  and  _190
REMARK   75  A    between atoms: _190  and  _191
REMARK   76  A    between atoms: _196  and  _198
REMARK   77  A    between atoms: _198  and  _199
REMARK   78  A    between atoms: _198  and  _201
REMARK   79  A    between atoms: _201  and  _202
REMARK   80  A    between atoms: _207  and  _209
REMARK   81  A    between atoms: _209  and  _210
REMARK   82  A    between atoms: _209  and  _212
REMARK   83  A    between atoms: _212  and  _213
REMARK   84  A    between atoms: _215  and  _217
REMARK   85  A    between atoms: _217  and  _218
REMARK   86  A    between atoms: _217  and  _220
REMARK   87  A    between atoms: _220  and  _221
REMARK   88  A    between atoms: _231  and  _233
REMARK   89  A    between atoms: _233  and  _234
REMARK   90  A    between atoms: _236  and  _238
REMARK   91  A    between atoms: _238  and  _239
REMARK   92  A    between atoms: _238  and  _241
REMARK   93  A    between atoms: _241  and  _242
REMARK   94  A    between atoms: _247  and  _249
REMARK   95  A    between atoms: _249  and  _250
REMARK   96  A    between atoms: _249  and  _252
REMARK   97  A    between atoms: _252  and  _253
REMARK   98  A    between atoms: _258  and  _260
REMARK   99  A    between atoms: _260  and  _261
REMARK  100  A    between atoms: _260  and  _263
REMARK  101  A    between atoms: _263  and  _264
REMARK  102  A    between atoms: _270  and  _272
REMARK  103  A    between atoms: _272  and  _273
REMARK  104  A    between atoms: _275  and  _277
REMARK  105  A    between atoms: _277  and  _278
REMARK  106  A    between atoms: _277  and  _280
REMARK  107  A    between atoms: _280  and  _281
REMARK  108  A    between atoms: _281  and  _282
REMARK  109  A    between atoms: _285  and  _287
REMARK  110  A    between atoms: _287  and  _288
REMARK                            x       y       z     vdW  Elec       q    Type
REMARK                         _______ _______ _______ _____ _____    ______ ____
ROOT
ATOM      1  C   GLY A   4      19.377  -8.921  14.774  0.00  0.00    +0.243 C 
ATOM      2  N   HIS A   5      20.035 -10.029  14.449  0.00  0.00    -0.297 N 
ATOM      3  H   HIS A   5      20.470 -10.609  15.195  0.00  0.00    +0.150 HD
ATOM      4  O   GLY A   4      18.681  -8.288  13.976  0.00  0.00    -0.273 OA
ENDROOT
BRANCH   2   5
ATOM      5  CA  HIS A   5      20.151 -10.439  13.049  0.00  0.00    +0.155 C 
BRANCH   5   6
ATOM      6  C   HIS A   5      18.887 -11.090  12.486  0.00  0.00    +0.241 C 
ATOM      7  N   ASN A   6      17.886 -11.344  13.330  0.00  0.00    -0.297 N 
ATOM      8  H   ASN A   6      17.977 -11.064  14.327  0.00  0.00    +0.150 HD
ATOM      9  O   HIS A   5      18.804 -11.330  11.287  0.00  0.00    -0.273 OA
BRANCH   7  10
ATOM     10  CA  ASN A   6      16.662 -12.010  12.880  0.00  0.00    +0.158 C 
BRANCH  10  11
ATOM     11  C   ASN A   6      15.482 -11.080  12.649  0.00  0.00    +0.241 C 
ATOM     12  N   PHE A   7      15.604  -9.824  13.062  0.00  0.00    -0.297 N 
ATOM     13  H   PHE A   7      16.461  -9.532  13.573  0.00  0.00    +0.150 HD
ATOM     14  O   ASN A   6      14.461 -11.501  12.114  0.00  0.00    -0.273 OA
BRANCH  12  15
ATOM     15  CA  PHE A   7      14.553  -8.854  12.807  0.00  0.00    +0.153 C 
BRANCH  15  16
ATOM     16  C   PHE A   7      14.533  -8.476  11.322  0.00  0.00    +0.241 C 
ATOM     17  O   PHE A   7      15.571  -8.202  10.744  0.00  0.00    -0.273 OA
ATOM     18  N   GLY A   8      13.347  -8.437  10.726  0.00  0.00    -0.296 N 
ATOM     19  H   GLY A   8      12.517  -8.807  11.231  0.00  0.00    +0.150 HD
BRANCH  18  20
ATOM     20  CA  GLY A   8      13.172  -7.890   9.380  0.00  0.00    +0.163 C 
BRANCH  20  21
ATOM     21  C   GLY A   8      14.010  -8.636   8.368  0.00  0.00    +0.229 C 
ATOM     22  O   GLY A   8      14.021  -9.870   8.365  0.00  0.00    -0.286 OA
ENDBRANCH  20  21
ENDBRANCH  18  20
ENDBRANCH  15  16
BRANCH  15  23
ATOM     23  CB  PHE A   7      14.765  -7.586  13.631  0.00  0.00    +0.055 C 
BRANCH  23  24
ATOM     24  CG  PHE A   7      13.942  -6.422  13.145  0.00  0.00    -0.020 A 
ATOM     25  CD2 PHE A   7      12.632  -6.267  13.564  0.00  0.00    -0.004 A 
ATOM     26  CE2 PHE A   7      11.865  -5.205  13.103  0.00  0.00    -0.000 A 
ATOM     27  CZ  PHE A   7      12.398  -4.302  12.194  0.00  0.00    -0.000 A 
ATOM     28  CE1 PHE A   7      13.699  -4.444  11.763  0.00  0.00    -0.000 A 
ATOM     29  CD1 PHE A   7      14.467  -5.508  12.238  0.00  0.00    -0.004 A 
ENDBRANCH  23  24
ENDBRANCH  15  23
ENDBRANCH  12  15
ENDBRANCH  10  11
BRANCH  10  30
ATOM     30  CB  ASN A   6      16.249 -13.091  13.875  0.00  0.00    +0.114 C 
BRANCH  30  31
ATOM     31  CG  ASN A   6      17.314 -14.139  14.069  0.00  0.00    +0.222 C 
ATOM     32  ND2 ASN A   6      17.659 -14.401  15.325  0.00  0.00    -0.329 N 
ATOM     33 HD21 ASN A   6      17.195 -13.898  16.108  0.00  0.00    +0.145 HD
ATOM     34 HD22 ASN A   6      18.393 -15.110  15.526  0.00  0.00    +0.145 HD
ATOM     35  OD1 ASN A   6      17.830 -14.704  13.107  0.00  0.00    -0.275 OA
ENDBRANCH  30  31
ENDBRANCH  10  30
ENDBRANCH   7  10
ENDBRANCH   5   6
BRANCH   5  36
ATOM     36  CB  HIS A   5      21.401 -11.306  12.805  0.00  0.00    +0.076 C 
BRANCH  36  37
ATOM     37  CG  HIS A   5      21.390 -12.634  13.500  0.00  0.00    +0.082 A 
ATOM     38  CD2 HIS A   5      22.139 -13.107  14.525  0.00  0.00    +0.115 A 
ATOM     39  NE2 HIS A   5      21.743 -14.403  14.752  0.00  0.00    -0.221 NA
ATOM     40  CE1 HIS A   5      20.800 -14.722  13.883  0.00  0.00    +0.199 A 
ATOM     41  ND1 HIS A   5      20.577 -13.675  13.108  0.00  0.00    -0.227 NA
ENDBRANCH  36  37
ENDBRANCH   5  36
ENDBRANCH   2   5
BRANCH   1  42
ATOM     42  CA  GLY A   4      19.489  -8.502  16.231  0.00  0.00    +0.176 C 
BRANCH  42  45
ATOM     43  C   TRP A   3      17.588  -7.071  16.827  0.00  0.00    +0.241 C 
ATOM     44  O   TRP A   3      16.789  -8.005  16.756  0.00  0.00    -0.273 OA
ATOM     45  N   GLY A   4      18.883  -7.210  16.534  0.00  0.00    -0.295 N 
ATOM     46  H   GLY A   4      19.485  -6.362  16.521  0.00  0.00    +0.150 HD
BRANCH  43  47
ATOM     47  CA  TRP A   3      17.111  -5.672  17.266  0.00  0.00    +0.153 C 
BRANCH  47  50
ATOM     48  C   SER A   2      18.740  -3.876  17.427  0.00  0.00    +0.243 C 
ATOM     49  O   SER A   2      18.879  -4.049  18.632  0.00  0.00    -0.273 OA
ATOM     50  N   TRP A   3      17.919  -4.611  16.692  0.00  0.00    -0.297 N 
ATOM     51  H   TRP A   3      17.851  -4.422  15.672  0.00  0.00    +0.150 HD
BRANCH  48  52
ATOM     52  CA  SER A   2      19.553  -2.832  16.662  0.00  0.00    +0.178 C 
BRANCH  52  54
ATOM     53  C   ASN A   1      19.015  -2.240  14.323  0.00  0.00    +0.239 C 
ATOM     54  N   SER A   2      18.735  -2.193  15.627  0.00  0.00    -0.295 N 
ATOM     55  H   SER A   2      17.886  -1.672  15.927  0.00  0.00    +0.150 HD
ATOM     56  O   ASN A   1      20.073  -2.696  13.884  0.00  0.00    -0.274 OA
BRANCH  53  57
ATOM     57  CA  ASN A   1      17.984  -1.599  13.367  0.00  0.00    +0.154 C 
BRANCH  57  58
ATOM     58  N   ASN A   1      18.534  -1.539  12.019  0.00  0.00    -0.238 NA
ATOM     59  H   ASN A   1      18.453  -2.382  11.415  0.00  0.00    +0.142 HD
ENDBRANCH  57  58
BRANCH  57  60
ATOM     60  CB  ASN A   1      16.648  -2.364  13.317  0.00  0.00    +0.111 C 
BRANCH  60  61
ATOM     61  CG  ASN A   1      15.730  -2.070  14.499  0.00  0.00    +0.221 C 
ATOM     62  OD1 ASN A   1      16.020  -1.246  15.363  0.00  0.00    -0.275 OA
ATOM     63  ND2 ASN A   1      14.608  -2.770  14.541  0.00  0.00    -0.329 N 
ATOM     64 HD21 ASN A   1      13.938  -2.631  15.324  0.00  0.00    +0.145 HD
ATOM     65 HD22 ASN A   1      14.397  -3.459  13.791  0.00  0.00    +0.145 HD
ENDBRANCH  60  61
ENDBRANCH  57  60
ENDBRANCH  53  57
ENDBRANCH  52  54
BRANCH  52  66
ATOM     66  CB  SER A   2      20.146  -1.790  17.615  0.00  0.00    +0.166 C 
BRANCH  66  67
ATOM     67  OG  SER A   2      19.157  -0.961  18.205  0.00  0.00    -0.380 OA
ATOM     68  H   SER A   2      18.525  -1.520  18.722  0.00  0.00    +0.211 HD
ENDBRANCH  66  67
ENDBRANCH  52  66
ENDBRANCH  48  52
ENDBRANCH  47  50
BRANCH  47  69
ATOM     69  CB  TRP A   3      15.641  -5.459  16.881  0.00  0.00    +0.057 C 
BRANCH  69  70
ATOM     70  CG  TRP A   3      14.915  -4.337  17.574  0.00  0.00    -0.002 A 
ATOM     71  CD1 TRP A   3      15.402  -3.483  18.526  0.00  0.00    +0.068 A 
ATOM     72  NE1 TRP A   3      14.424  -2.611  18.921  0.00  0.00    -0.352 N 
ATOM     73  HE1 TRP A   3      14.537  -1.858  19.630  0.00  0.00    +0.166 HD
ATOM     74  CE2 TRP A   3      13.271  -2.888  18.233  0.00  0.00    +0.056 A 
ATOM     75  CZ2 TRP A   3      12.013  -2.280  18.292  0.00  0.00    +0.017 A 
ATOM     76  CH2 TRP A   3      11.027  -2.783  17.479  0.00  0.00    +0.001 A 
ATOM     77  CZ3 TRP A   3      11.271  -3.859  16.608  0.00  0.00    +0.000 A 
ATOM     78  CE3 TRP A   3      12.517  -4.464  16.551  0.00  0.00    +0.001 A 
ATOM     79  CD2 TRP A   3      13.544  -3.973  17.374  0.00  0.00    +0.013 A 
ENDBRANCH  69  70
ENDBRANCH  47  69
ENDBRANCH  43  47
ENDBRANCH  42  45
ENDBRANCH   1  42
TORSDOF 28
REMARK  Name = ../refined-set-2016/3n3g/3n3g_pocket.pdb
REMARK  110 active torsions:
REMARK  status: ('A' for Active; 'I' for Inactive)
REMARK    1  A    between atoms: _1  and  _3
REMARK    2  A    between atoms: _3  and  _4
REMARK    3  A    between atoms: _3  and  _6
REMARK    4  A    between atoms: _6  and  _7
REMARK    5  A    between atoms: _7  and  _8
REMARK    6  A    between atoms: _8  and  _9
REMARK    7  A    between atoms: _9  and  _10
REMARK    8  A    between atoms: _14  and  _16
REMARK    9  A    between atoms: _16  and  _17
REMARK   10  A    between atoms: _16  and  _19
REMARK   11  A    between atoms: _19  and  _20
REMARK   12  A    between atoms: _25  and  _26
REMARK   13  A    between atoms: _28  and  _30
REMARK   14  A    between atoms: _30  and  _31
REMARK   15  A    between atoms: _30  and  _33
REMARK   16  A    between atoms: _33  and  _34
REMARK   17  A    between atoms: _34  and  _35
REMARK   18  A    between atoms: _40  and  _42
REMARK   19  A    between atoms: _42  and  _43
REMARK   20  A    between atoms: _45  and  _47
REMARK   21  A    between atoms: _47  and  _48
REMARK   22  A    between atoms: _47  and  _50
REMARK   23  A    between atoms: _50  and  _51
REMARK   24  A    between atoms: _53  and  _55
REMARK   25  A    between atoms: _55  and  _56
REMARK   26  A    between atoms: _55  and  _58
REMARK   27  A    between atoms: _60  and  _62
REMARK   28  A    between atoms: _62  and  _63
REMARK   29  A    between atoms: _66  and  _68
REMARK   30  A    between atoms: _68  and  _69
REMARK   31  A    between atoms: _68  and  _71
REMARK   32  A    between atoms: _71  and  _72
REMARK   33  A    between atoms: _78  and  _80
REMARK   34  A    between atoms: _80  and  _81
REMARK   35  A    between atoms: _80  and  _83
REMARK   36  A    between atoms: _83  and  _84
REMARK   37  A    between atoms: _89  and  _90
REMARK   38  A    between atoms: _92  and  _94
REMARK   39  A    between atoms: _94  and  _95
REMARK   40  A    between atoms: _99  and  _100
REMARK   41  A    between atoms: _105  and  _107
REMARK   42  A    between atoms: _107  and  _108
REMARK   43  A    between atoms: _107  and  _110
REMARK   44  A    between atoms: _110  and  _111
REMARK   45  A    between atoms: _113  and  _115
REMARK   46  A    between atoms: _115  and  _116
REMARK   47  A    between atoms: _115  and  _118
REMARK   48  A    between atoms: _118  and  _119
REMARK   49  A    between atoms: _125  and  _127
REMARK   50  A    between atoms: _127  and  _128
REMARK   51  A    between atoms: _127  and  _130
REMARK   52  A    between atoms: _130  and  _131
REMARK   53  A    between atoms: _137  and  _139
REMARK   54  A    between atoms: _139  and  _140
REMARK   55  A    between atoms: _139  and  _142
REMARK   56  A    between atoms: _142  and  _143
REMARK   57  A    between atoms: _146  and  _148
REMARK   58  A    between atoms: _148  and  _149
REMARK   59  A    between atoms: _148  and  _151
REMARK   60  A    between atoms: _151  and  _152
REMARK   61  A    between atoms: _157  and  _158
REMARK   62  A    between atoms: _160  and  _162
REMARK   63  A    between atoms: _162  and  _163
REMARK   64  A    between atoms: _162  and  _165
REMARK   65  A    between atoms: _165  and  _166
REMARK   66  A    between atoms: _166  and  _167
REMARK   67  A    between atoms: _167  and  _168
REMARK   68  A    between atoms: _177  and  _179
REMARK   69  A    between atoms: _179  and  _180
REMARK   70  A    between atoms: _179  and  _182
REMARK   71  A    between atoms: _182  and  _183
REMARK   72  A    between atoms: _185  and  _187
REMARK   73  A    between atoms: _187  and  _188
REMARK   74  A    between atoms: _187  and  _190
REMARK   75  A    between atoms: _190  and  _191
REMARK   76  A    between atoms: _196  and  _198
REMARK   77  A    between atoms: _198  and  _199
REMARK   78  A    between atoms: _198  and  _201
REMARK   79  A    between atoms: _201  and  _202
REMARK   80  A    between atoms: _207  and  _209
REMARK   81  A    between atoms: _209  and  _210
REMARK   82  A    between atoms: _209  and  _212
REMARK   83  A    between atoms: _212  and  _213
REMARK   84  A    between atoms: _215  and  _217
REMARK   85  A    between atoms: _217  and  _218
REMARK   86  A    between atoms: _217  and  _220
REMARK   87  A    between atoms: _220  and  _221
REMARK   88  A    between atoms: _231  and  _233
REMARK   89  A    between atoms: _233  and  _234
REMARK   90  A    between atoms: _236  and  _238
REMARK   91  A    between atoms: _238  and  _239
REMARK   92  A    between atoms: _238  and  _241
REMARK   93  A    between atoms: _241  and  _242
REMARK   94  A    between atoms: _247  and  _249
REMARK   95  A    between atoms: _249  and  _250
REMARK   96  A    between atoms: _249  and  _252
REMARK   97  A    between atoms: _252  and  _253
REMARK   98  A    between atoms: _258  and  _260
REMARK   99  A    between atoms: _260  and  _261
REMARK  100  A    between atoms: _260  and  _263
REMARK  101  A    between atoms: _263  and  _264
REMARK  102  A    between atoms: _270  and  _272
REMARK  103  A    between atoms: _272  and  _273
REMARK  104  A    between atoms: _275  and  _277
REMARK  105  A    between atoms: _277  and  _278
REMARK  106  A    between atoms: _277  and  _280
REMARK  107  A    between atoms: _280  and  _281
REMARK  108  A    between atoms: _281  and  _282
REMARK  109  A    between atoms: _285  and  _287
REMARK  110  A    between atoms: _287  and  _288
REMARK                            x       y       z     vdW  Elec       q    Type
REMARK                         _______ _______ _______ _____ _____    ______ ____
ROOT
ATOM      1  CA  GLU A   1      18.384  -9.905   8.617  0.00  0.00    +0.145 C 
ENDROOT
BRANCH   1   2
ATOM      2  C   GLU A   1      19.000  -8.689   9.324  0.00  0.00    +0.238 C 
ATOM      3  N   GLY A   2      18.151  -7.969  10.045  0.00  0.00    -0.297 N 
ATOM      4  H   GLY A   2      17.148  -8.242  10.060  0.00  0.00    +0.150 HD
ATOM      5  O   GLU A   1      20.212  -8.409   9.221  0.00  0.00    -0.274 OA
BRANCH   3   6
ATOM      6  CA  GLY A   2      18.578  -6.806  10.818  0.00  0.00    +0.163 C 
BRANCH   6   7
ATOM      7  C   GLY A   2      18.111  -5.481  10.263  0.00  0.00    +0.229 C 
ATOM      8  O   GLY A   2      18.147  -4.482  10.960  0.00  0.00    -0.286 OA
ENDBRANCH   6   7
ENDBRANCH   3   6
ENDBRANCH   1   2
BRANCH   1   9
ATOM      9  N   GLU A   1      17.143  -9.612   7.892  0.00  0.00    -0.238 NA
ATOM     10  H   GLU A   1      16.341 -10.263   8.012  0.00  0.00    +0.142 HD
ENDBRANCH   1   9
BRANCH   1  11
ATOM     11  CB  GLU A   1      19.377 -10.577   7.692  0.00  0.00    +0.038 C 
BRANCH  11  12
ATOM     12  CG  GLU A   1      19.004 -12.008   7.357  0.00  0.00    +0.116 C 
BRANCH  12  13
ATOM     13  CD  GLU A   1      19.813 -12.542   6.203  0.00  0.00    +0.365 C 
ATOM     14  OE2 GLU A   1      20.749 -13.330   6.428  0.00  0.00    -0.246 OA
ATOM     15  OE1 GLU A   1      19.520 -12.138   5.071  0.00  0.00    -0.246 OA
ENDBRANCH  12  13
ENDBRANCH  11  12
ENDBRANCH   1  11
TORSDOF 7
REMARK  Name = ../refined-set-2016/3n3g/3n3g_pocket.pdb
REMARK  110 active torsions:
REMARK  status: ('A' for Active; 'I' for Inactive)
REMARK    1  A    between atoms: _1  and  _3
REMARK    2  A    between atoms: _3  and  _4
REMARK    3  A    between atoms: _3  and  _6
REMARK    4  A    between atoms: _6  and  _7
REMARK    5  A    between atoms: _7  and  _8
REMARK    6  A    between atoms: _8  and  _9
REMARK    7  A    between atoms: _9  and  _10
REMARK    8  A    between atoms: _14  and  _16
REMARK    9  A    between atoms: _16  and  _17
REMARK   10  A    between atoms: _16  and  _19
REMARK   11  A    between atoms: _19  and  _20
REMARK   12  A    between atoms: _25  and  _26
REMARK   13  A    between atoms: _28  and  _30
REMARK   14  A    between atoms: _30  and  _31
REMARK   15  A    between atoms: _30  and  _33
REMARK   16  A    between atoms: _33  and  _34
REMARK   17  A    between atoms: _34  and  _35
REMARK   18  A    between atoms: _40  and  _42
REMARK   19  A    between atoms: _42  and  _43
REMARK   20  A    between atoms: _45  and  _47
REMARK   21  A    between atoms: _47  and  _48
REMARK   22  A    between atoms: _47  and  _50
REMARK   23  A    between atoms: _50  and  _51
REMARK   24  A    between atoms: _53  and  _55
REMARK   25  A    between atoms: _55  and  _56
REMARK   26  A    between atoms: _55  and  _58
REMARK   27  A    between atoms: _60  and  _62
REMARK   28  A    between atoms: _62  and  _63
REMARK   29  A    between atoms: _66  and  _68
REMARK   30  A    between atoms: _68  and  _69
REMARK   31  A    between atoms: _68  and  _71
REMARK   32  A    between atoms: _71  and  _72
REMARK   33  A    between atoms: _78  and  _80
REMARK   34  A    between atoms: _80  and  _81
REMARK   35  A    between atoms: _80  and  _83
REMARK   36  A    between atoms: _83  and  _84
REMARK   37  A    between atoms: _89  and  _90
REMARK   38  A    between atoms: _92  and  _94
REMARK   39  A    between atoms: _94  and  _95
REMARK   40  A    between atoms: _99  and  _100
REMARK   41  A    between atoms: _105  and  _107
REMARK   42  A    between atoms: _107  and  _108
REMARK   43  A    between atoms: _107  and  _110
REMARK   44  A    between atoms: _110  and  _111
REMARK   45  A    between atoms: _113  and  _115
REMARK   46  A    between atoms: _115  and  _116
REMARK   47  A    between atoms: _115  and  _118
REMARK   48  A    between atoms: _118  and  _119
REMARK   49  A    between atoms: _125  and  _127
REMARK   50  A    between atoms: _127  and  _128
REMARK   51  A    between atoms: _127  and  _130
REMARK   52  A    between atoms: _130  and  _131
REMARK   53  A    between atoms: _137  and  _139
REMARK   54  A    between atoms: _139  and  _140
REMARK   55  A    between atoms: _139  and  _142
REMARK   56  A    between atoms: _142  and  _143
REMARK   57  A    between atoms: _146  and  _148
REMARK   58  A    between atoms: _148  and  _149
REMARK   59  A    between atoms: _148  and  _151
REMARK   60  A    between atoms: _151  and  _152
REMARK   61  A    between atoms: _157  and  _158
REMARK   62  A    between atoms: _160  and  _162
REMARK   63  A    between atoms: _162  and  _163
REMARK   64  A    between atoms: _162  and  _165
REMARK   65  A    between atoms: _165  and  _166
REMARK   66  A    between atoms: _166  and  _167
REMARK   67  A    between atoms: _167  and  _168
REMARK   68  A    between atoms: _177  and  _179
REMARK   69  A    between atoms: _179  and  _180
REMARK   70  A    between atoms: _179  and  _182
REMARK   71  A    between atoms: _182  and  _183
REMARK   72  A    between atoms: _185  and  _187
REMARK   73  A    between atoms: _187  and  _188
REMARK   74  A    between atoms: _187  and  _190
REMARK   75  A    between atoms: _190  and  _191
REMARK   76  A    between atoms: _196  and  _198
REMARK   77  A    between atoms: _198  and  _199
REMARK   78  A    between atoms: _198  and  _201
REMARK   79  A    between atoms: _201  and  _202
REMARK   80  A    between atoms: _207  and  _209
REMARK   81  A    between atoms: _209  and  _210
REMARK   82  A    between atoms: _209  and  _212
REMARK   83  A    between atoms: _212  and  _213
REMARK   84  A    between atoms: _215  and  _217
REMARK   85  A    between atoms: _217  and  _218
REMARK   86  A    between atoms: _217  and  _220
REMARK   87  A    between atoms: _220  and  _221
REMARK   88  A    between atoms: _231  and  _233
REMARK   89  A    between atoms: _233  and  _234
REMARK   90  A    between atoms: _236  and  _238
REMARK   91  A    between atoms: _238  and  _239
REMARK   92  A    between atoms: _238  and  _241
REMARK   93  A    between atoms: _241  and  _242
REMARK   94  A    between atoms: _247  and  _249
REMARK   95  A    between atoms: _249  and  _250
REMARK   96  A    between atoms: _249  and  _252
REMARK   97  A    between atoms: _252  and  _253
REMARK   98  A    between atoms: _258  and  _260
REMARK   99  A    between atoms: _260  and  _261
REMARK  100  A    between atoms: _260  and  _263
REMARK  101  A    between atoms: _263  and  _264
REMARK  102  A    between atoms: _270  and  _272
REMARK  103  A    between atoms: _272  and  _273
REMARK  104  A    between atoms: _275  and  _277
REMARK  105  A    between atoms: _277  and  _278
REMARK  106  A    between atoms: _277  and  _280
REMARK  107  A    between atoms: _280  and  _281
REMARK  108  A    between atoms: _281  and  _282
REMARK  109  A    between atoms: _285  and  _287
REMARK  110  A    between atoms: _287  and  _288
REMARK                            x       y       z     vdW  Elec       q    Type
REMARK                         _______ _______ _______ _____ _____    ______ ____
ROOT
ATOM      1  O   HOH     1      13.241 -11.453   5.691  0.00  0.00    +0.000 OA
ENDROOT
TORSDOF 0
REMARK  Name = ../refined-set-2016/3n3g/3n3g_pocket.pdb
REMARK  110 active torsions:
REMARK  status: ('A' for Active; 'I' for Inactive)
REMARK    1  A    between atoms: _1  and  _3
REMARK    2  A    between atoms: _3  and  _4
REMARK    3  A    between atoms: _3  and  _6
REMARK    4  A    between atoms: _6  and  _7
REMARK    5  A    between atoms: _7  and  _8
REMARK    6  A    between atoms: _8  and  _9
REMARK    7  A    between atoms: _9  and  _10
REMARK    8  A    between atoms: _14  and  _16
REMARK    9  A    between atoms: _16  and  _17
REMARK   10  A    between atoms: _16  and  _19
REMARK   11  A    between atoms: _19  and  _20
REMARK   12  A    between atoms: _25  and  _26
REMARK   13  A    between atoms: _28  and  _30
REMARK   14  A    between atoms: _30  and  _31
REMARK   15  A    between atoms: _30  and  _33
REMARK   16  A    between atoms: _33  and  _34
REMARK   17  A    between atoms: _34  and  _35
REMARK   18  A    between atoms: _40  and  _42
REMARK   19  A    between atoms: _42  and  _43
REMARK   20  A    between atoms: _45  and  _47
REMARK   21  A    between atoms: _47  and  _48
REMARK   22  A    between atoms: _47  and  _50
REMARK   23  A    between atoms: _50  and  _51
REMARK   24  A    between atoms: _53  and  _55
REMARK   25  A    between atoms: _55  and  _56
REMARK   26  A    between atoms: _55  and  _58
REMARK   27  A    between atoms: _60  and  _62
REMARK   28  A    between atoms: _62  and  _63
REMARK   29  A    between atoms: _66  and  _68
REMARK   30  A    between atoms: _68  and  _69
REMARK   31  A    between atoms: _68  and  _71
REMARK   32  A    between atoms: _71  and  _72
REMARK   33  A    between atoms: _78  and  _80
REMARK   34  A    between atoms: _80  and  _81
REMARK   35  A    between atoms: _80  and  _83
REMARK   36  A    between atoms: _83  and  _84
REMARK   37  A    between atoms: _89  and  _90
REMARK   38  A    between atoms: _92  and  _94
REMARK   39  A    between atoms: _94  and  _95
REMARK   40  A    between atoms: _99  and  _100
REMARK   41  A    between atoms: _105  and  _107
REMARK   42  A    between atoms: _107  and  _108
REMARK   43  A    between atoms: _107  and  _110
REMARK   44  A    between atoms: _110  and  _111
REMARK   45  A    between atoms: _113  and  _115
REMARK   46  A    between atoms: _115  and  _116
REMARK   47  A    between atoms: _115  and  _118
REMARK   48  A    between atoms: _118  and  _119
REMARK   49  A    between atoms: _125  and  _127
REMARK   50  A    between atoms: _127  and  _128
REMARK   51  A    between atoms: _127  and  _130
REMARK   52  A    between atoms: _130  and  _131
REMARK   53  A    between atoms: _137  and  _139
REMARK   54  A    between atoms: _139  and  _140
REMARK   55  A    between atoms: _139  and  _142
REMARK   56  A    between atoms: _142  and  _143
REMARK   57  A    between atoms: _146  and  _148
REMARK   58  A    between atoms: _148  and  _149
REMARK   59  A    between atoms: _148  and  _151
REMARK   60  A    between atoms: _151  and  _152
REMARK   61  A    between atoms: _157  and  _158
REMARK   62  A    between atoms: _160  and  _162
REMARK   63  A    between atoms: _162  and  _163
REMARK   64  A    between atoms: _162  and  _165
REMARK   65  A    between atoms: _165  and  _166
REMARK   66  A    between atoms: _166  and  _167
REMARK   67  A    between atoms: _167  and  _168
REMARK   68  A    between atoms: _177  and  _179
REMARK   69  A    between atoms: _179  and  _180
REMARK   70  A    between atoms: _179  and  _182
REMARK   71  A    between atoms: _182  and  _183
REMARK   72  A    between atoms: _185  and  _187
REMARK   73  A    between atoms: _187  and  _188
REMARK   74  A    between atoms: _187  and  _190
REMARK   75  A    between atoms: _190  and  _191
REMARK   76  A    between atoms: _196  and  _198
REMARK   77  A    between atoms: _198  and  _199
REMARK   78  A    between atoms: _198  and  _201
REMARK   79  A    between atoms: _201  and  _202
REMARK   80  A    between atoms: _207  and  _209
REMARK   81  A    between atoms: _209  and  _210
REMARK   82  A    between atoms: _209  and  _212
REMARK   83  A    between atoms: _212  and  _213
REMARK   84  A    between atoms: _215  and  _217
REMARK   85  A    between atoms: _217  and  _218
REMARK   86  A    between atoms: _217  and  _220
REMARK   87  A    between atoms: _220  and  _221
REMARK   88  A    between atoms: _231  and  _233
REMARK   89  A    between atoms: _233  and  _234
REMARK   90  A    between atoms: _236  and  _238
REMARK   91  A    between atoms: _238  and  _239
REMARK   92  A    between atoms: _238  and  _241
REMARK   93  A    between atoms: _241  and  _242
REMARK   94  A    between atoms: _247  and  _249
REMARK   95  A    between atoms: _249  and  _250
REMARK   96  A    between atoms: _249  and  _252
REMARK   97  A    between atoms: _252  and  _253
REMARK   98  A    between atoms: _258  and  _260
REMARK   99  A    between atoms: _260  and  _261
REMARK  100  A    between atoms: _260  and  _263
REMARK  101  A    between atoms: _263  and  _264
REMARK  102  A    between atoms: _270  and  _272
REMARK  103  A    between atoms: _272  and  _273
REMARK  104  A    between atoms: _275  and  _277
REMARK  105  A    between atoms: _277  and  _278
REMARK  106  A    between atoms: _277  and  _280
REMARK  107  A    between atoms: _280  and  _281
REMARK  108  A    between atoms: _281  and  _282
REMARK  109  A    between atoms: _285  and  _287
REMARK  110  A    between atoms: _287  and  _288
REMARK                            x       y       z     vdW  Elec       q    Type
REMARK                         _______ _______ _______ _____ _____    ______ ____
ROOT
ATOM      1  O   HOH     1      20.932 -12.314  19.309  0.00  0.00    +0.000 OA
ENDROOT
TORSDOF 0
REMARK  Name = ../refined-set-2016/3n3g/3n3g_pocket.pdb
REMARK  110 active torsions:
REMARK  status: ('A' for Active; 'I' for Inactive)
REMARK    1  A    between atoms: _1  and  _3
REMARK    2  A    between atoms: _3  and  _4
REMARK    3  A    between atoms: _3  and  _6
REMARK    4  A    between atoms: _6  and  _7
REMARK    5  A    between atoms: _7  and  _8
REMARK    6  A    between atoms: _8  and  _9
REMARK    7  A    between atoms: _9  and  _10
REMARK    8  A    between atoms: _14  and  _16
REMARK    9  A    between atoms: _16  and  _17
REMARK   10  A    between atoms: _16  and  _19
REMARK   11  A    between atoms: _19  and  _20
REMARK   12  A    between atoms: _25  and  _26
REMARK   13  A    between atoms: _28  and  _30
REMARK   14  A    between atoms: _30  and  _31
REMARK   15  A    between atoms: _30  and  _33
REMARK   16  A    between atoms: _33  and  _34
REMARK   17  A    between atoms: _34  and  _35
REMARK   18  A    between atoms: _40  and  _42
REMARK   19  A    between atoms: _42  and  _43
REMARK   20  A    between atoms: _45  and  _47
REMARK   21  A    between atoms: _47  and  _48
REMARK   22  A    between atoms: _47  and  _50
REMARK   23  A    between atoms: _50  and  _51
REMARK   24  A    between atoms: _53  and  _55
REMARK   25  A    between atoms: _55  and  _56
REMARK   26  A    between atoms: _55  and  _58
REMARK   27  A    between atoms: _60  and  _62
REMARK   28  A    between atoms: _62  and  _63
REMARK   29  A    between atoms: _66  and  _68
REMARK   30  A    between atoms: _68  and  _69
REMARK   31  A    between atoms: _68  and  _71
REMARK   32  A    between atoms: _71  and  _72
REMARK   33  A    between atoms: _78  and  _80
REMARK   34  A    between atoms: _80  and  _81
REMARK   35  A    between atoms: _80  and  _83
REMARK   36  A    between atoms: _83  and  _84
REMARK   37  A    between atoms: _89  and  _90
REMARK   38  A    between atoms: _92  and  _94
REMARK   39  A    between atoms: _94  and  _95
REMARK   40  A    between atoms: _99  and  _100
REMARK   41  A    between atoms: _105  and  _107
REMARK   42  A    between atoms: _107  and  _108
REMARK   43  A    between atoms: _107  and  _110
REMARK   44  A    between atoms: _110  and  _111
REMARK   45  A    between atoms: _113  and  _115
REMARK   46  A    between atoms: _115  and  _116
REMARK   47  A    between atoms: _115  and  _118
REMARK   48  A    between atoms: _118  and  _119
REMARK   49  A    between atoms: _125  and  _127
REMARK   50  A    between atoms: _127  and  _128
REMARK   51  A    between atoms: _127  and  _130
REMARK   52  A    between atoms: _130  and  _131
REMARK   53  A    between atoms: _137  and  _139
REMARK   54  A    between atoms: _139  and  _140
REMARK   55  A    between atoms: _139  and  _142
REMARK   56  A    between atoms: _142  and  _143
REMARK   57  A    between atoms: _146  and  _148
REMARK   58  A    between atoms: _148  and  _149
REMARK   59  A    between atoms: _148  and  _151
REMARK   60  A    between atoms: _151  and  _152
REMARK   61  A    between atoms: _157  and  _158
REMARK   62  A    between atoms: _160  and  _162
REMARK   63  A    between atoms: _162  and  _163
REMARK   64  A    between atoms: _162  and  _165
REMARK   65  A    between atoms: _165  and  _166
REMARK   66  A    between atoms: _166  and  _167
REMARK   67  A    between atoms: _167  and  _168
REMARK   68  A    between atoms: _177  and  _179
REMARK   69  A    between atoms: _179  and  _180
REMARK   70  A    between atoms: _179  and  _182
REMARK   71  A    between atoms: _182  and  _183
REMARK   72  A    between atoms: _185  and  _187
REMARK   73  A    between atoms: _187  and  _188
REMARK   74  A    between atoms: _187  and  _190
REMARK   75  A    between atoms: _190  and  _191
REMARK   76  A    between atoms: _196  and  _198
REMARK   77  A    between atoms: _198  and  _199
REMARK   78  A    between atoms: _198  and  _201
REMARK   79  A    between atoms: _201  and  _202
REMARK   80  A    between atoms: _207  and  _209
REMARK   81  A    between atoms: _209  and  _210
REMARK   82  A    between atoms: _209  and  _212
REMARK   83  A    between atoms: _212  and  _213
REMARK   84  A    between atoms: _215  and  _217
REMARK   85  A    between atoms: _217  and  _218
REMARK   86  A    between atoms: _217  and  _220
REMARK   87  A    between atoms: _220  and  _221
REMARK   88  A    between atoms: _231  and  _233
REMARK   89  A    between atoms: _233  and  _234
REMARK   90  A    between atoms: _236  and  _238
REMARK   91  A    between atoms: _238  and  _239
REMARK   92  A    between atoms: _238  and  _241
REMARK   93  A    between atoms: _241  and  _242
REMARK   94  A    between atoms: _247  and  _249
REMARK   95  A    between atoms: _249  and  _250
REMARK   96  A    between atoms: _249  and  _252
REMARK   97  A    between atoms: _252  and  _253
REMARK   98  A    between atoms: _258  and  _260
REMARK   99  A    between atoms: _260  and  _261
REMARK  100  A    between atoms: _260  and  _263
REMARK  101  A    between atoms: _263  and  _264
REMARK  102  A    between atoms: _270  and  _272
REMARK  103  A    between atoms: _272  and  _273
REMARK  104  A    between atoms: _275  and  _277
REMARK  105  A    between atoms: _277  and  _278
REMARK  106  A    between atoms: _277  and  _280
REMARK  107  A    between atoms: _280  and  _281
REMARK  108  A    between atoms: _281  and  _282
REMARK  109  A    between atoms: _285  and  _287
REMARK  110  A    between atoms: _287  and  _288
REMARK                            x       y       z     vdW  Elec       q    Type
REMARK                         _______ _______ _______ _____ _____    ______ ____
ROOT
ATOM      1  O   HOH     1      17.999  -5.406  13.928  0.00  0.00    +0.000 OA
ENDROOT
TORSDOF 0
REMARK  Name = ../refined-set-2016/3n3g/3n3g_pocket.pdb
REMARK  110 active torsions:
REMARK  status: ('A' for Active; 'I' for Inactive)
REMARK    1  A    between atoms: _1  and  _3
REMARK    2  A    between atoms: _3  and  _4
REMARK    3  A    between atoms: _3  and  _6
REMARK    4  A    between atoms: _6  and  _7
REMARK    5  A    between atoms: _7  and  _8
REMARK    6  A    between atoms: _8  and  _9
REMARK    7  A    between atoms: _9  and  _10
REMARK    8  A    between atoms: _14  and  _16
REMARK    9  A    between atoms: _16  and  _17
REMARK   10  A    between atoms: _16  and  _19
REMARK   11  A    between atoms: _19  and  _20
REMARK   12  A    between atoms: _25  and  _26
REMARK   13  A    between atoms: _28  and  _30
REMARK   14  A    between atoms: _30  and  _31
REMARK   15  A    between atoms: _30  and  _33
REMARK   16  A    between atoms: _33  and  _34
REMARK   17  A    between atoms: _34  and  _35
REMARK   18  A    between atoms: _40  and  _42
REMARK   19  A    between atoms: _42  and  _43
REMARK   20  A    between atoms: _45  and  _47
REMARK   21  A    between atoms: _47  and  _48
REMARK   22  A    between atoms: _47  and  _50
REMARK   23  A    between atoms: _50  and  _51
REMARK   24  A    between atoms: _53  and  _55
REMARK   25  A    between atoms: _55  and  _56
REMARK   26  A    between atoms: _55  and  _58
REMARK   27  A    between atoms: _60  and  _62
REMARK   28  A    between atoms: _62  and  _63
REMARK   29  A    between atoms: _66  and  _68
REMARK   30  A    between atoms: _68  and  _69
REMARK   31  A    between atoms: _68  and  _71
REMARK   32  A    between atoms: _71  and  _72
REMARK   33  A    between atoms: _78  and  _80
REMARK   34  A    between atoms: _80  and  _81
REMARK   35  A    between atoms: _80  and  _83
REMARK   36  A    between atoms: _83  and  _84
REMARK   37  A    between atoms: _89  and  _90
REMARK   38  A    between atoms: _92  and  _94
REMARK   39  A    between atoms: _94  and  _95
REMARK   40  A    between atoms: _99  and  _100
REMARK   41  A    between atoms: _105  and  _107
REMARK   42  A    between atoms: _107  and  _108
REMARK   43  A    between atoms: _107  and  _110
REMARK   44  A    between atoms: _110  and  _111
REMARK   45  A    between atoms: _113  and  _115
REMARK   46  A    between atoms: _115  and  _116
REMARK   47  A    between atoms: _115  and  _118
REMARK   48  A    between atoms: _118  and  _119
REMARK   49  A    between atoms: _125  and  _127
REMARK   50  A    between atoms: _127  and  _128
REMARK   51  A    between atoms: _127  and  _130
REMARK   52  A    between atoms: _130  and  _131
REMARK   53  A    between atoms: _137  and  _139
REMARK   54  A    between atoms: _139  and  _140
REMARK   55  A    between atoms: _139  and  _142
REMARK   56  A    between atoms: _142  and  _143
REMARK   57  A    between atoms: _146  and  _148
REMARK   58  A    between atoms: _148  and  _149
REMARK   59  A    between atoms: _148  and  _151
REMARK   60  A    between atoms: _151  and  _152
REMARK   61  A    between atoms: _157  and  _158
REMARK   62  A    between atoms: _160  and  _162
REMARK   63  A    between atoms: _162  and  _163
REMARK   64  A    between atoms: _162  and  _165
REMARK   65  A    between atoms: _165  and  _166
REMARK   66  A    between atoms: _166  and  _167
REMARK   67  A    between atoms: _167  and  _168
REMARK   68  A    between atoms: _177  and  _179
REMARK   69  A    between atoms: _179  and  _180
REMARK   70  A    between atoms: _179  and  _182
REMARK   71  A    between atoms: _182  and  _183
REMARK   72  A    between atoms: _185  and  _187
REMARK   73  A    between atoms: _187  and  _188
REMARK   74  A    between atoms: _187  and  _190
REMARK   75  A    between atoms: _190  and  _191
REMARK   76  A    between atoms: _196  and  _198
REMARK   77  A    between atoms: _198  and  _199
REMARK   78  A    between atoms: _198  and  _201
REMARK   79  A    between atoms: _201  and  _202
REMARK   80  A    between atoms: _207  and  _209
REMARK   81  A    between atoms: _209  and  _210
REMARK   82  A    between atoms: _209  and  _212
REMARK   83  A    between atoms: _212  and  _213
REMARK   84  A    between atoms: _215  and  _217
REMARK   85  A    between atoms: _217  and  _218
REMARK   86  A    between atoms: _217  and  _220
REMARK   87  A    between atoms: _220  and  _221
REMARK   88  A    between atoms: _231  and  _233
REMARK   89  A    between atoms: _233  and  _234
REMARK   90  A    between atoms: _236  and  _238
REMARK   91  A    between atoms: _238  and  _239
REMARK   92  A    between atoms: _238  and  _241
REMARK   93  A    between atoms: _241  and  _242
REMARK   94  A    between atoms: _247  and  _249
REMARK   95  A    between atoms: _249  and  _250
REMARK   96  A    between atoms: _249  and  _252
REMARK   97  A    between atoms: _252  and  _253
REMARK   98  A    between atoms: _258  and  _260
REMARK   99  A    between atoms: _260  and  _261
REMARK  100  A    between atoms: _260  and  _263
REMARK  101  A    between atoms: _263  and  _264
REMARK  102  A    between atoms: _270  and  _272
REMARK  103  A    between atoms: _272  and  _273
REMARK  104  A    between atoms: _275  and  _277
REMARK  105  A    between atoms: _277  and  _278
REMARK  106  A    between atoms: _277  and  _280
REMARK  107  A    between atoms: _280  and  _281
REMARK  108  A    between atoms: _281  and  _282
REMARK  109  A    between atoms: _285  and  _287
REMARK  110  A    between atoms: _287  and  _288
REMARK                            x       y       z     vdW  Elec       q    Type
REMARK                         _______ _______ _______ _____ _____    ______ ____
ROOT
ATOM      1  O   HOH     1      15.960 -12.260   9.163  0.00  0.00    +0.000 OA
ENDROOT
TORSDOF 0
REMARK  Name = ../refined-set-2016/3n3g/3n3g_pocket.pdb
REMARK  110 active torsions:
REMARK  status: ('A' for Active; 'I' for Inactive)
REMARK    1  A    between atoms: _1  and  _3
REMARK    2  A    between atoms: _3  and  _4
REMARK    3  A    between atoms: _3  and  _6
REMARK    4  A    between atoms: _6  and  _7
REMARK    5  A    between atoms: _7  and  _8
REMARK    6  A    between atoms: _8  and  _9
REMARK    7  A    between atoms: _9  and  _10
REMARK    8  A    between atoms: _14  and  _16
REMARK    9  A    between atoms: _16  and  _17
REMARK   10  A    between atoms: _16  and  _19
REMARK   11  A    between atoms: _19  and  _20
REMARK   12  A    between atoms: _25  and  _26
REMARK   13  A    between atoms: _28  and  _30
REMARK   14  A    between atoms: _30  and  _31
REMARK   15  A    between atoms: _30  and  _33
REMARK   16  A    between atoms: _33  and  _34
REMARK   17  A    between atoms: _34  and  _35
REMARK   18  A    between atoms: _40  and  _42
REMARK   19  A    between atoms: _42  and  _43
REMARK   20  A    between atoms: _45  and  _47
REMARK   21  A    between atoms: _47  and  _48
REMARK   22  A    between atoms: _47  and  _50
REMARK   23  A    between atoms: _50  and  _51
REMARK   24  A    between atoms: _53  and  _55
REMARK   25  A    between atoms: _55  and  _56
REMARK   26  A    between atoms: _55  and  _58
REMARK   27  A    between atoms: _60  and  _62
REMARK   28  A    between atoms: _62  and  _63
REMARK   29  A    between atoms: _66  and  _68
REMARK   30  A    between atoms: _68  and  _69
REMARK   31  A    between atoms: _68  and  _71
REMARK   32  A    between atoms: _71  and  _72
REMARK   33  A    between atoms: _78  and  _80
REMARK   34  A    between atoms: _80  and  _81
REMARK   35  A    between atoms: _80  and  _83
REMARK   36  A    between atoms: _83  and  _84
REMARK   37  A    between atoms: _89  and  _90
REMARK   38  A    between atoms: _92  and  _94
REMARK   39  A    between atoms: _94  and  _95
REMARK   40  A    between atoms: _99  and  _100
REMARK   41  A    between atoms: _105  and  _107
REMARK   42  A    between atoms: _107  and  _108
REMARK   43  A    between atoms: _107  and  _110
REMARK   44  A    between atoms: _110  and  _111
REMARK   45  A    between atoms: _113  and  _115
REMARK   46  A    between atoms: _115  and  _116
REMARK   47  A    between atoms: _115  and  _118
REMARK   48  A    between atoms: _118  and  _119
REMARK   49  A    between atoms: _125  and  _127
REMARK   50  A    between atoms: _127  and  _128
REMARK   51  A    between atoms: _127  and  _130
REMARK   52  A    between atoms: _130  and  _131
REMARK   53  A    between atoms: _137  and  _139
REMARK   54  A    between atoms: _139  and  _140
REMARK   55  A    between atoms: _139  and  _142
REMARK   56  A    between atoms: _142  and  _143
REMARK   57  A    between atoms: _146  and  _148
REMARK   58  A    between atoms: _148  and  _149
REMARK   59  A    between atoms: _148  and  _151
REMARK   60  A    between atoms: _151  and  _152
REMARK   61  A    between atoms: _157  and  _158
REMARK   62  A    between atoms: _160  and  _162
REMARK   63  A    between atoms: _162  and  _163
REMARK   64  A    between atoms: _162  and  _165
REMARK   65  A    between atoms: _165  and  _166
REMARK   66  A    between atoms: _166  and  _167
REMARK   67  A    between atoms: _167  and  _168
REMARK   68  A    between atoms: _177  and  _179
REMARK   69  A    between atoms: _179  and  _180
REMARK   70  A    between atoms: _179  and  _182
REMARK   71  A    between atoms: _182  and  _183
REMARK   72  A    between atoms: _185  and  _187
REMARK   73  A    between atoms: _187  and  _188
REMARK   74  A    between atoms: _187  and  _190
REMARK   75  A    between atoms: _190  and  _191
REMARK   76  A    between atoms: _196  and  _198
REMARK   77  A    between atoms: _198  and  _199
REMARK   78  A    between atoms: _198  and  _201
REMARK   79  A    between atoms: _201  and  _202
REMARK   80  A    between atoms: _207  and  _209
REMARK   81  A    between atoms: _209  and  _210
REMARK   82  A    between atoms: _209  and  _212
REMARK   83  A    between atoms: _212  and  _213
REMARK   84  A    between atoms: _215  and  _217
REMARK   85  A    between atoms: _217  and  _218
REMARK   86  A    between atoms: _217  and  _220
REMARK   87  A    between atoms: _220  and  _221
REMARK   88  A    between atoms: _231  and  _233
REMARK   89  A    between atoms: _233  and  _234
REMARK   90  A    between atoms: _236  and  _238
REMARK   91  A    between atoms: _238  and  _239
REMARK   92  A    between atoms: _238  and  _241
REMARK   93  A    between atoms: _241  and  _242
REMARK   94  A    between atoms: _247  and  _249
REMARK   95  A    between atoms: _249  and  _250
REMARK   96  A    between atoms: _249  and  _252
REMARK   97  A    between atoms: _252  and  _253
REMARK   98  A    between atoms: _258  and  _260
REMARK   99  A    between atoms: _260  and  _261
REMARK  100  A    between atoms: _260  and  _263
REMARK  101  A    between atoms: _263  and  _264
REMARK  102  A    between atoms: _270  and  _272
REMARK  103  A    between atoms: _272  and  _273
REMARK  104  A    between atoms: _275  and  _277
REMARK  105  A    between atoms: _277  and  _278
REMARK  106  A    between atoms: _277  and  _280
REMARK  107  A    between atoms: _280  and  _281
REMARK  108  A    between atoms: _281  and  _282
REMARK  109  A    between atoms: _285  and  _287
REMARK  110  A    between atoms: _287  and  _288
REMARK                            x       y       z     vdW  Elec       q    Type
REMARK                         _______ _______ _______ _____ _____    ______ ____
ROOT
ATOM      1  O   HOH     1      22.672  -7.901  24.066  0.00  0.00    +0.000 OA
ENDROOT
TORSDOF 0
REMARK  Name = ../refined-set-2016/3n3g/3n3g_pocket.pdb
REMARK  110 active torsions:
REMARK  status: ('A' for Active; 'I' for Inactive)
REMARK    1  A    between atoms: _1  and  _3
REMARK    2  A    between atoms: _3  and  _4
REMARK    3  A    between atoms: _3  and  _6
REMARK    4  A    between atoms: _6  and  _7
REMARK    5  A    between atoms: _7  and  _8
REMARK    6  A    between atoms: _8  and  _9
REMARK    7  A    between atoms: _9  and  _10
REMARK    8  A    between atoms: _14  and  _16
REMARK    9  A    between atoms: _16  and  _17
REMARK   10  A    between atoms: _16  and  _19
REMARK   11  A    between atoms: _19  and  _20
REMARK   12  A    between atoms: _25  and  _26
REMARK   13  A    between atoms: _28  and  _30
REMARK   14  A    between atoms: _30  and  _31
REMARK   15  A    between atoms: _30  and  _33
REMARK   16  A    between atoms: _33  and  _34
REMARK   17  A    between atoms: _34  and  _35
REMARK   18  A    between atoms: _40  and  _42
REMARK   19  A    between atoms: _42  and  _43
REMARK   20  A    between atoms: _45  and  _47
REMARK   21  A    between atoms: _47  and  _48
REMARK   22  A    between atoms: _47  and  _50
REMARK   23  A    between atoms: _50  and  _51
REMARK   24  A    between atoms: _53  and  _55
REMARK   25  A    between atoms: _55  and  _56
REMARK   26  A    between atoms: _55  and  _58
REMARK   27  A    between atoms: _60  and  _62
REMARK   28  A    between atoms: _62  and  _63
REMARK   29  A    between atoms: _66  and  _68
REMARK   30  A    between atoms: _68  and  _69
REMARK   31  A    between atoms: _68  and  _71
REMARK   32  A    between atoms: _71  and  _72
REMARK   33  A    between atoms: _78  and  _80
REMARK   34  A    between atoms: _80  and  _81
REMARK   35  A    between atoms: _80  and  _83
REMARK   36  A    between atoms: _83  and  _84
REMARK   37  A    between atoms: _89  and  _90
REMARK   38  A    between atoms: _92  and  _94
REMARK   39  A    between atoms: _94  and  _95
REMARK   40  A    between atoms: _99  and  _100
REMARK   41  A    between atoms: _105  and  _107
REMARK   42  A    between atoms: _107  and  _108
REMARK   43  A    between atoms: _107  and  _110
REMARK   44  A    between atoms: _110  and  _111
REMARK   45  A    between atoms: _113  and  _115
REMARK   46  A    between atoms: _115  and  _116
REMARK   47  A    between atoms: _115  and  _118
REMARK   48  A    between atoms: _118  and  _119
REMARK   49  A    between atoms: _125  and  _127
REMARK   50  A    between atoms: _127  and  _128
REMARK   51  A    between atoms: _127  and  _130
REMARK   52  A    between atoms: _130  and  _131
REMARK   53  A    between atoms: _137  and  _139
REMARK   54  A    between atoms: _139  and  _140
REMARK   55  A    between atoms: _139  and  _142
REMARK   56  A    between atoms: _142  and  _143
REMARK   57  A    between atoms: _146  and  _148
REMARK   58  A    between atoms: _148  and  _149
REMARK   59  A    between atoms: _148  and  _151
REMARK   60  A    between atoms: _151  and  _152
REMARK   61  A    between atoms: _157  and  _158
REMARK   62  A    between atoms: _160  and  _162
REMARK   63  A    between atoms: _162  and  _163
REMARK   64  A    between atoms: _162  and  _165
REMARK   65  A    between atoms: _165  and  _166
REMARK   66  A    between atoms: _166  and  _167
REMARK   67  A    between atoms: _167  and  _168
REMARK   68  A    between atoms: _177  and  _179
REMARK   69  A    between atoms: _179  and  _180
REMARK   70  A    between atoms: _179  and  _182
REMARK   71  A    between atoms: _182  and  _183
REMARK   72  A    between atoms: _185  and  _187
REMARK   73  A    between atoms: _187  and  _188
REMARK   74  A    between atoms: _187  and  _190
REMARK   75  A    between atoms: _190  and  _191
REMARK   76  A    between atoms: _196  and  _198
REMARK   77  A    between atoms: _198  and  _199
REMARK   78  A    between atoms: _198  and  _201
REMARK   79  A    between atoms: _201  and  _202
REMARK   80  A    between atoms: _207  and  _209
REMARK   81  A    between atoms: _209  and  _210
REMARK   82  A    between atoms: _209  and  _212
REMARK   83  A    between atoms: _212  and  _213
REMARK   84  A    between atoms: _215  and  _217
REMARK   85  A    between atoms: _217  and  _218
REMARK   86  A    between atoms: _217  and  _220
REMARK   87  A    between atoms: _220  and  _221
REMARK   88  A    between atoms: _231  and  _233
REMARK   89  A    between atoms: _233  and  _234
REMARK   90  A    between atoms: _236  and  _238
REMARK   91  A    between atoms: _238  and  _239
REMARK   92  A    between atoms: _238  and  _241
REMARK   93  A    between atoms: _241  and  _242
REMARK   94  A    between atoms: _247  and  _249
REMARK   95  A    between atoms: _249  and  _250
REMARK   96  A    between atoms: _249  and  _252
REMARK   97  A    between atoms: _252  and  _253
REMARK   98  A    between atoms: _258  and  _260
REMARK   99  A    between atoms: _260  and  _261
REMARK  100  A    between atoms: _260  and  _263
REMARK  101  A    between atoms: _263  and  _264
REMARK  102  A    between atoms: _270  and  _272
REMARK  103  A    between atoms: _272  and  _273
REMARK  104  A    between atoms: _275  and  _277
REMARK  105  A    between atoms: _277  and  _278
REMARK  106  A    between atoms: _277  and  _280
REMARK  107  A    between atoms: _280  and  _281
REMARK  108  A    between atoms: _281  and  _282
REMARK  109  A    between atoms: _285  and  _287
REMARK  110  A    between atoms: _287  and  _288
REMARK                            x       y       z     vdW  Elec       q    Type
REMARK                         _______ _______ _______ _____ _____    ______ ____
ROOT
ATOM      1  O   HOH     1       8.870   0.120  20.001  0.00  0.00    +0.000 OA
ENDROOT
TORSDOF 0
REMARK  Name = ../refined-set-2016/3n3g/3n3g_pocket.pdb
REMARK  110 active torsions:
REMARK  status: ('A' for Active; 'I' for Inactive)
REMARK    1  A    between atoms: _1  and  _3
REMARK    2  A    between atoms: _3  and  _4
REMARK    3  A    between atoms: _3  and  _6
REMARK    4  A    between atoms: _6  and  _7
REMARK    5  A    between atoms: _7  and  _8
REMARK    6  A    between atoms: _8  and  _9
REMARK    7  A    between atoms: _9  and  _10
REMARK    8  A    between atoms: _14  and  _16
REMARK    9  A    between atoms: _16  and  _17
REMARK   10  A    between atoms: _16  and  _19
REMARK   11  A    between atoms: _19  and  _20
REMARK   12  A    between atoms: _25  and  _26
REMARK   13  A    between atoms: _28  and  _30
REMARK   14  A    between atoms: _30  and  _31
REMARK   15  A    between atoms: _30  and  _33
REMARK   16  A    between atoms: _33  and  _34
REMARK   17  A    between atoms: _34  and  _35
REMARK   18  A    between atoms: _40  and  _42
REMARK   19  A    between atoms: _42  and  _43
REMARK   20  A    between atoms: _45  and  _47
REMARK   21  A    between atoms: _47  and  _48
REMARK   22  A    between atoms: _47  and  _50
REMARK   23  A    between atoms: _50  and  _51
REMARK   24  A    between atoms: _53  and  _55
REMARK   25  A    between atoms: _55  and  _56
REMARK   26  A    between atoms: _55  and  _58
REMARK   27  A    between atoms: _60  and  _62
REMARK   28  A    between atoms: _62  and  _63
REMARK   29  A    between atoms: _66  and  _68
REMARK   30  A    between atoms: _68  and  _69
REMARK   31  A    between atoms: _68  and  _71
REMARK   32  A    between atoms: _71  and  _72
REMARK   33  A    between atoms: _78  and  _80
REMARK   34  A    between atoms: _80  and  _81
REMARK   35  A    between atoms: _80  and  _83
REMARK   36  A    between atoms: _83  and  _84
REMARK   37  A    between atoms: _89  and  _90
REMARK   38  A    between atoms: _92  and  _94
REMARK   39  A    between atoms: _94  and  _95
REMARK   40  A    between atoms: _99  and  _100
REMARK   41  A    between atoms: _105  and  _107
REMARK   42  A    between atoms: _107  and  _108
REMARK   43  A    between atoms: _107  and  _110
REMARK   44  A    between atoms: _110  and  _111
REMARK   45  A    between atoms: _113  and  _115
REMARK   46  A    between atoms: _115  and  _116
REMARK   47  A    between atoms: _115  and  _118
REMARK   48  A    between atoms: _118  and  _119
REMARK   49  A    between atoms: _125  and  _127
REMARK   50  A    between atoms: _127  and  _128
REMARK   51  A    between atoms: _127  and  _130
REMARK   52  A    between atoms: _130  and  _131
REMARK   53  A    between atoms: _137  and  _139
REMARK   54  A    between atoms: _139  and  _140
REMARK   55  A    between atoms: _139  and  _142
REMARK   56  A    between atoms: _142  and  _143
REMARK   57  A    between atoms: _146  and  _148
REMARK   58  A    between atoms: _148  and  _149
REMARK   59  A    between atoms: _148  and  _151
REMARK   60  A    between atoms: _151  and  _152
REMARK   61  A    between atoms: _157  and  _158
REMARK   62  A    between atoms: _160  and  _162
REMARK   63  A    between atoms: _162  and  _163
REMARK   64  A    between atoms: _162  and  _165
REMARK   65  A    between atoms: _165  and  _166
REMARK   66  A    between atoms: _166  and  _167
REMARK   67  A    between atoms: _167  and  _168
REMARK   68  A    between atoms: _177  and  _179
REMARK   69  A    between atoms: _179  and  _180
REMARK   70  A    between atoms: _179  and  _182
REMARK   71  A    between atoms: _182  and  _183
REMARK   72  A    between atoms: _185  and  _187
REMARK   73  A    between atoms: _187  and  _188
REMARK   74  A    between atoms: _187  and  _190
REMARK   75  A    between atoms: _190  and  _191
REMARK   76  A    between atoms: _196  and  _198
REMARK   77  A    between atoms: _198  and  _199
REMARK   78  A    between atoms: _198  and  _201
REMARK   79  A    between atoms: _201  and  _202
REMARK   80  A    between atoms: _207  and  _209
REMARK   81  A    between atoms: _209  and  _210
REMARK   82  A    between atoms: _209  and  _212
REMARK   83  A    between atoms: _212  and  _213
REMARK   84  A    between atoms: _215  and  _217
REMARK   85  A    between atoms: _217  and  _218
REMARK   86  A    between atoms: _217  and  _220
REMARK   87  A    between atoms: _220  and  _221
REMARK   88  A    between atoms: _231  and  _233
REMARK   89  A    between atoms: _233  and  _234
REMARK   90  A    between atoms: _236  and  _238
REMARK   91  A    between atoms: _238  and  _239
REMARK   92  A    between atoms: _238  and  _241
REMARK   93  A    between atoms: _241  and  _242
REMARK   94  A    between atoms: _247  and  _249
REMARK   95  A    between atoms: _249  and  _250
REMARK   96  A    between atoms: _249  and  _252
REMARK   97  A    between atoms: _252  and  _253
REMARK   98  A    between atoms: _258  and  _260
REMARK   99  A    between atoms: _260  and  _261
REMARK  100  A    between atoms: _260  and  _263
REMARK  101  A    between atoms: _263  and  _264
REMARK  102  A    between atoms: _270  and  _272
REMARK  103  A    between atoms: _272  and  _273
REMARK  104  A    between atoms: _275  and  _277
REMARK  105  A    between atoms: _277  and  _278
REMARK  106  A    between atoms: _277  and  _280
REMARK  107  A    between atoms: _280  and  _281
REMARK  108  A    between atoms: _281  and  _282
REMARK  109  A    between atoms: _285  and  _287
REMARK  110  A    between atoms: _287  and  _288
REMARK                            x       y       z     vdW  Elec       q    Type
REMARK                         _______ _______ _______ _____ _____    ______ ____
ROOT
ATOM      1  O   HOH     1      14.596  -3.441  23.752  0.00  0.00    +0.000 OA
ENDROOT
TORSDOF 0
REMARK  Name = ../refined-set-2016/3n3g/3n3g_pocket.pdb
REMARK  110 active torsions:
REMARK  status: ('A' for Active; 'I' for Inactive)
REMARK    1  A    between atoms: _1  and  _3
REMARK    2  A    between atoms: _3  and  _4
REMARK    3  A    between atoms: _3  and  _6
REMARK    4  A    between atoms: _6  and  _7
REMARK    5  A    between atoms: _7  and  _8
REMARK    6  A    between atoms: _8  and  _9
REMARK    7  A    between atoms: _9  and  _10
REMARK    8  A    between atoms: _14  and  _16
REMARK    9  A    between atoms: _16  and  _17
REMARK   10  A    between atoms: _16  and  _19
REMARK   11  A    between atoms: _19  and  _20
REMARK   12  A    between atoms: _25  and  _26
REMARK   13  A    between atoms: _28  and  _30
REMARK   14  A    between atoms: _30  and  _31
REMARK   15  A    between atoms: _30  and  _33
REMARK   16  A    between atoms: _33  and  _34
REMARK   17  A    between atoms: _34  and  _35
REMARK   18  A    between atoms: _40  and  _42
REMARK   19  A    between atoms: _42  and  _43
REMARK   20  A    between atoms: _45  and  _47
REMARK   21  A    between atoms: _47  and  _48
REMARK   22  A    between atoms: _47  and  _50
REMARK   23  A    between atoms: _50  and  _51
REMARK   24  A    between atoms: _53  and  _55
REMARK   25  A    between atoms: _55  and  _56
REMARK   26  A    between atoms: _55  and  _58
REMARK   27  A    between atoms: _60  and  _62
REMARK   28  A    between atoms: _62  and  _63
REMARK   29  A    between atoms: _66  and  _68
REMARK   30  A    between atoms: _68  and  _69
REMARK   31  A    between atoms: _68  and  _71
REMARK   32  A    between atoms: _71  and  _72
REMARK   33  A    between atoms: _78  and  _80
REMARK   34  A    between atoms: _80  and  _81
REMARK   35  A    between atoms: _80  and  _83
REMARK   36  A    between atoms: _83  and  _84
REMARK   37  A    between atoms: _89  and  _90
REMARK   38  A    between atoms: _92  and  _94
REMARK   39  A    between atoms: _94  and  _95
REMARK   40  A    between atoms: _99  and  _100
REMARK   41  A    between atoms: _105  and  _107
REMARK   42  A    between atoms: _107  and  _108
REMARK   43  A    between atoms: _107  and  _110
REMARK   44  A    between atoms: _110  and  _111
REMARK   45  A    between atoms: _113  and  _115
REMARK   46  A    between atoms: _115  and  _116
REMARK   47  A    between atoms: _115  and  _118
REMARK   48  A    between atoms: _118  and  _119
REMARK   49  A    between atoms: _125  and  _127
REMARK   50  A    between atoms: _127  and  _128
REMARK   51  A    between atoms: _127  and  _130
REMARK   52  A    between atoms: _130  and  _131
REMARK   53  A    between atoms: _137  and  _139
REMARK   54  A    between atoms: _139  and  _140
REMARK   55  A    between atoms: _139  and  _142
REMARK   56  A    between atoms: _142  and  _143
REMARK   57  A    between atoms: _146  and  _148
REMARK   58  A    between atoms: _148  and  _149
REMARK   59  A    between atoms: _148  and  _151
REMARK   60  A    between atoms: _151  and  _152
REMARK   61  A    between atoms: _157  and  _158
REMARK   62  A    between atoms: _160  and  _162
REMARK   63  A    between atoms: _162  and  _163
REMARK   64  A    between atoms: _162  and  _165
REMARK   65  A    between atoms: _165  and  _166
REMARK   66  A    between atoms: _166  and  _167
REMARK   67  A    between atoms: _167  and  _168
REMARK   68  A    between atoms: _177  and  _179
REMARK   69  A    between atoms: _179  and  _180
REMARK   70  A    between atoms: _179  and  _182
REMARK   71  A    between atoms: _182  and  _183
REMARK   72  A    between atoms: _185  and  _187
REMARK   73  A    between atoms: _187  and  _188
REMARK   74  A    between atoms: _187  and  _190
REMARK   75  A    between atoms: _190  and  _191
REMARK   76  A    between atoms: _196  and  _198
REMARK   77  A    between atoms: _198  and  _199
REMARK   78  A    between atoms: _198  and  _201
REMARK   79  A    between atoms: _201  and  _202
REMARK   80  A    between atoms: _207  and  _209
REMARK   81  A    between atoms: _209  and  _210
REMARK   82  A    between atoms: _209  and  _212
REMARK   83  A    between atoms: _212  and  _213
REMARK   84  A    between atoms: _215  and  _217
REMARK   85  A    between atoms: _217  and  _218
REMARK   86  A    between atoms: _217  and  _220
REMARK   87  A    between atoms: _220  and  _221
REMARK   88  A    between atoms: _231  and  _233
REMARK   89  A    between atoms: _233  and  _234
REMARK   90  A    between atoms: _236  and  _238
REMARK   91  A    between atoms: _238  and  _239
REMARK   92  A    between atoms: _238  and  _241
REMARK   93  A    between atoms: _241  and  _242
REMARK   94  A    between atoms: _247  and  _249
REMARK   95  A    between atoms: _249  and  _250
REMARK   96  A    between atoms: _249  and  _252
REMARK   97  A    between atoms: _252  and  _253
REMARK   98  A    between atoms: _258  and  _260
REMARK   99  A    between atoms: _260  and  _261
REMARK  100  A    between atoms: _260  and  _263
REMARK  101  A    between atoms: _263  and  _264
REMARK  102  A    between atoms: _270  and  _272
REMARK  103  A    between atoms: _272  and  _273
REMARK  104  A    between atoms: _275  and  _277
REMARK  105  A    between atoms: _277  and  _278
REMARK  106  A    between atoms: _277  and  _280
REMARK  107  A    between atoms: _280  and  _281
REMARK  108  A    between atoms: _281  and  _282
REMARK  109  A    between atoms: _285  and  _287
REMARK  110  A    between atoms: _287  and  _288
REMARK                            x       y       z     vdW  Elec       q    Type
REMARK                         _______ _______ _______ _____ _____    ______ ____
ROOT
ATOM      1  O   HOH     1       9.969 -15.435  10.124  0.00  0.00    +0.000 OA
ENDROOT
TORSDOF 0
REMARK  Name = ../refined-set-2016/3n3g/3n3g_pocket.pdb
REMARK  110 active torsions:
REMARK  status: ('A' for Active; 'I' for Inactive)
REMARK    1  A    between atoms: _1  and  _3
REMARK    2  A    between atoms: _3  and  _4
REMARK    3  A    between atoms: _3  and  _6
REMARK    4  A    between atoms: _6  and  _7
REMARK    5  A    between atoms: _7  and  _8
REMARK    6  A    between atoms: _8  and  _9
REMARK    7  A    between atoms: _9  and  _10
REMARK    8  A    between atoms: _14  and  _16
REMARK    9  A    between atoms: _16  and  _17
REMARK   10  A    between atoms: _16  and  _19
REMARK   11  A    between atoms: _19  and  _20
REMARK   12  A    between atoms: _25  and  _26
REMARK   13  A    between atoms: _28  and  _30
REMARK   14  A    between atoms: _30  and  _31
REMARK   15  A    between atoms: _30  and  _33
REMARK   16  A    between atoms: _33  and  _34
REMARK   17  A    between atoms: _34  and  _35
REMARK   18  A    between atoms: _40  and  _42
REMARK   19  A    between atoms: _42  and  _43
REMARK   20  A    between atoms: _45  and  _47
REMARK   21  A    between atoms: _47  and  _48
REMARK   22  A    between atoms: _47  and  _50
REMARK   23  A    between atoms: _50  and  _51
REMARK   24  A    between atoms: _53  and  _55
REMARK   25  A    between atoms: _55  and  _56
REMARK   26  A    between atoms: _55  and  _58
REMARK   27  A    between atoms: _60  and  _62
REMARK   28  A    between atoms: _62  and  _63
REMARK   29  A    between atoms: _66  and  _68
REMARK   30  A    between atoms: _68  and  _69
REMARK   31  A    between atoms: _68  and  _71
REMARK   32  A    between atoms: _71  and  _72
REMARK   33  A    between atoms: _78  and  _80
REMARK   34  A    between atoms: _80  and  _81
REMARK   35  A    between atoms: _80  and  _83
REMARK   36  A    between atoms: _83  and  _84
REMARK   37  A    between atoms: _89  and  _90
REMARK   38  A    between atoms: _92  and  _94
REMARK   39  A    between atoms: _94  and  _95
REMARK   40  A    between atoms: _99  and  _100
REMARK   41  A    between atoms: _105  and  _107
REMARK   42  A    between atoms: _107  and  _108
REMARK   43  A    between atoms: _107  and  _110
REMARK   44  A    between atoms: _110  and  _111
REMARK   45  A    between atoms: _113  and  _115
REMARK   46  A    between atoms: _115  and  _116
REMARK   47  A    between atoms: _115  and  _118
REMARK   48  A    between atoms: _118  and  _119
REMARK   49  A    between atoms: _125  and  _127
REMARK   50  A    between atoms: _127  and  _128
REMARK   51  A    between atoms: _127  and  _130
REMARK   52  A    between atoms: _130  and  _131
REMARK   53  A    between atoms: _137  and  _139
REMARK   54  A    between atoms: _139  and  _140
REMARK   55  A    between atoms: _139  and  _142
REMARK   56  A    between atoms: _142  and  _143
REMARK   57  A    between atoms: _146  and  _148
REMARK   58  A    between atoms: _148  and  _149
REMARK   59  A    between atoms: _148  and  _151
REMARK   60  A    between atoms: _151  and  _152
REMARK   61  A    between atoms: _157  and  _158
REMARK   62  A    between atoms: _160  and  _162
REMARK   63  A    between atoms: _162  and  _163
REMARK   64  A    between atoms: _162  and  _165
REMARK   65  A    between atoms: _165  and  _166
REMARK   66  A    between atoms: _166  and  _167
REMARK   67  A    between atoms: _167  and  _168
REMARK   68  A    between atoms: _177  and  _179
REMARK   69  A    between atoms: _179  and  _180
REMARK   70  A    between atoms: _179  and  _182
REMARK   71  A    between atoms: _182  and  _183
REMARK   72  A    between atoms: _185  and  _187
REMARK   73  A    between atoms: _187  and  _188
REMARK   74  A    between atoms: _187  and  _190
REMARK   75  A    between atoms: _190  and  _191
REMARK   76  A    between atoms: _196  and  _198
REMARK   77  A    between atoms: _198  and  _199
REMARK   78  A    between atoms: _198  and  _201
REMARK   79  A    between atoms: _201  and  _202
REMARK   80  A    between atoms: _207  and  _209
REMARK   81  A    between atoms: _209  and  _210
REMARK   82  A    between atoms: _209  and  _212
REMARK   83  A    between atoms: _212  and  _213
REMARK   84  A    between atoms: _215  and  _217
REMARK   85  A    between atoms: _217  and  _218
REMARK   86  A    between atoms: _217  and  _220
REMARK   87  A    between atoms: _220  and  _221
REMARK   88  A    between atoms: _231  and  _233
REMARK   89  A    between atoms: _233  and  _234
REMARK   90  A    between atoms: _236  and  _238
REMARK   91  A    between atoms: _238  and  _239
REMARK   92  A    between atoms: _238  and  _241
REMARK   93  A    between atoms: _241  and  _242
REMARK   94  A    between atoms: _247  and  _249
REMARK   95  A    between atoms: _249  and  _250
REMARK   96  A    between atoms: _249  and  _252
REMARK   97  A    between atoms: _252  and  _253
REMARK   98  A    between atoms: _258  and  _260
REMARK   99  A    between atoms: _260  and  _261
REMARK  100  A    between atoms: _260  and  _263
REMARK  101  A    between atoms: _263  and  _264
REMARK  102  A    between atoms: _270  and  _272
REMARK  103  A    between atoms: _272  and  _273
REMARK  104  A    between atoms: _275  and  _277
REMARK  105  A    between atoms: _277  and  _278
REMARK  106  A    between atoms: _277  and  _280
REMARK  107  A    between atoms: _280  and  _281
REMARK  108  A    between atoms: _281  and  _282
REMARK  109  A    between atoms: _285  and  _287
REMARK  110  A    between atoms: _287  and  _288
REMARK                            x       y       z     vdW  Elec       q    Type
REMARK                         _______ _______ _______ _____ _____    ______ ____
ROOT
ATOM      1  O   HOH     1      18.763  -8.025  27.262  0.00  0.00    +0.000 OA
ENDROOT
TORSDOF 0
REMARK  Name = ../refined-set-2016/3n3g/3n3g_pocket.pdb
REMARK  110 active torsions:
REMARK  status: ('A' for Active; 'I' for Inactive)
REMARK    1  A    between atoms: _1  and  _3
REMARK    2  A    between atoms: _3  and  _4
REMARK    3  A    between atoms: _3  and  _6
REMARK    4  A    between atoms: _6  and  _7
REMARK    5  A    between atoms: _7  and  _8
REMARK    6  A    between atoms: _8  and  _9
REMARK    7  A    between atoms: _9  and  _10
REMARK    8  A    between atoms: _14  and  _16
REMARK    9  A    between atoms: _16  and  _17
REMARK   10  A    between atoms: _16  and  _19
REMARK   11  A    between atoms: _19  and  _20
REMARK   12  A    between atoms: _25  and  _26
REMARK   13  A    between atoms: _28  and  _30
REMARK   14  A    between atoms: _30  and  _31
REMARK   15  A    between atoms: _30  and  _33
REMARK   16  A    between atoms: _33  and  _34
REMARK   17  A    between atoms: _34  and  _35
REMARK   18  A    between atoms: _40  and  _42
REMARK   19  A    between atoms: _42  and  _43
REMARK   20  A    between atoms: _45  and  _47
REMARK   21  A    between atoms: _47  and  _48
REMARK   22  A    between atoms: _47  and  _50
REMARK   23  A    between atoms: _50  and  _51
REMARK   24  A    between atoms: _53  and  _55
REMARK   25  A    between atoms: _55  and  _56
REMARK   26  A    between atoms: _55  and  _58
REMARK   27  A    between atoms: _60  and  _62
REMARK   28  A    between atoms: _62  and  _63
REMARK   29  A    between atoms: _66  and  _68
REMARK   30  A    between atoms: _68  and  _69
REMARK   31  A    between atoms: _68  and  _71
REMARK   32  A    between atoms: _71  and  _72
REMARK   33  A    between atoms: _78  and  _80
REMARK   34  A    between atoms: _80  and  _81
REMARK   35  A    between atoms: _80  and  _83
REMARK   36  A    between atoms: _83  and  _84
REMARK   37  A    between atoms: _89  and  _90
REMARK   38  A    between atoms: _92  and  _94
REMARK   39  A    between atoms: _94  and  _95
REMARK   40  A    between atoms: _99  and  _100
REMARK   41  A    between atoms: _105  and  _107
REMARK   42  A    between atoms: _107  and  _108
REMARK   43  A    between atoms: _107  and  _110
REMARK   44  A    between atoms: _110  and  _111
REMARK   45  A    between atoms: _113  and  _115
REMARK   46  A    between atoms: _115  and  _116
REMARK   47  A    between atoms: _115  and  _118
REMARK   48  A    between atoms: _118  and  _119
REMARK   49  A    between atoms: _125  and  _127
REMARK   50  A    between atoms: _127  and  _128
REMARK   51  A    between atoms: _127  and  _130
REMARK   52  A    between atoms: _130  and  _131
REMARK   53  A    between atoms: _137  and  _139
REMARK   54  A    between atoms: _139  and  _140
REMARK   55  A    between atoms: _139  and  _142
REMARK   56  A    between atoms: _142  and  _143
REMARK   57  A    between atoms: _146  and  _148
REMARK   58  A    between atoms: _148  and  _149
REMARK   59  A    between atoms: _148  and  _151
REMARK   60  A    between atoms: _151  and  _152
REMARK   61  A    between atoms: _157  and  _158
REMARK   62  A    between atoms: _160  and  _162
REMARK   63  A    between atoms: _162  and  _163
REMARK   64  A    between atoms: _162  and  _165
REMARK   65  A    between atoms: _165  and  _166
REMARK   66  A    between atoms: _166  and  _167
REMARK   67  A    between atoms: _167  and  _168
REMARK   68  A    between atoms: _177  and  _179
REMARK   69  A    between atoms: _179  and  _180
REMARK   70  A    between atoms: _179  and  _182
REMARK   71  A    between atoms: _182  and  _183
REMARK   72  A    between atoms: _185  and  _187
REMARK   73  A    between atoms: _187  and  _188
REMARK   74  A    between atoms: _187  and  _190
REMARK   75  A    between atoms: _190  and  _191
REMARK   76  A    between atoms: _196  and  _198
REMARK   77  A    between atoms: _198  and  _199
REMARK   78  A    between atoms: _198  and  _201
REMARK   79  A    between atoms: _201  and  _202
REMARK   80  A    between atoms: _207  and  _209
REMARK   81  A    between atoms: _209  and  _210
REMARK   82  A    between atoms: _209  and  _212
REMARK   83  A    between atoms: _212  and  _213
REMARK   84  A    between atoms: _215  and  _217
REMARK   85  A    between atoms: _217  and  _218
REMARK   86  A    between atoms: _217  and  _220
REMARK   87  A    between atoms: _220  and  _221
REMARK   88  A    between atoms: _231  and  _233
REMARK   89  A    between atoms: _233  and  _234
REMARK   90  A    between atoms: _236  and  _238
REMARK   91  A    between atoms: _238  and  _239
REMARK   92  A    between atoms: _238  and  _241
REMARK   93  A    between atoms: _241  and  _242
REMARK   94  A    between atoms: _247  and  _249
REMARK   95  A    between atoms: _249  and  _250
REMARK   96  A    between atoms: _249  and  _252
REMARK   97  A    between atoms: _252  and  _253
REMARK   98  A    between atoms: _258  and  _260
REMARK   99  A    between atoms: _260  and  _261
REMARK  100  A    between atoms: _260  and  _263
REMARK  101  A    between atoms: _263  and  _264
REMARK  102  A    between atoms: _270  and  _272
REMARK  103  A    between atoms: _272  and  _273
REMARK  104  A    between atoms: _275  and  _277
REMARK  105  A    between atoms: _277  and  _278
REMARK  106  A    between atoms: _277  and  _280
REMARK  107  A    between atoms: _280  and  _281
REMARK  108  A    between atoms: _281  and  _282
REMARK  109  A    between atoms: _285  and  _287
REMARK  110  A    between atoms: _287  and  _288
REMARK                            x       y       z     vdW  Elec       q    Type
REMARK                         _______ _______ _______ _____ _____    ______ ____
ROOT
ATOM      1  O   HOH     1      10.724  -8.850  12.318  0.00  0.00    +0.000 OA
ENDROOT
TORSDOF 0
REMARK  Name = ../refined-set-2016/3n3g/3n3g_pocket.pdb
REMARK  110 active torsions:
REMARK  status: ('A' for Active; 'I' for Inactive)
REMARK    1  A    between atoms: _1  and  _3
REMARK    2  A    between atoms: _3  and  _4
REMARK    3  A    between atoms: _3  and  _6
REMARK    4  A    between atoms: _6  and  _7
REMARK    5  A    between atoms: _7  and  _8
REMARK    6  A    between atoms: _8  and  _9
REMARK    7  A    between atoms: _9  and  _10
REMARK    8  A    between atoms: _14  and  _16
REMARK    9  A    between atoms: _16  and  _17
REMARK   10  A    between atoms: _16  and  _19
REMARK   11  A    between atoms: _19  and  _20
REMARK   12  A    between atoms: _25  and  _26
REMARK   13  A    between atoms: _28  and  _30
REMARK   14  A    between atoms: _30  and  _31
REMARK   15  A    between atoms: _30  and  _33
REMARK   16  A    between atoms: _33  and  _34
REMARK   17  A    between atoms: _34  and  _35
REMARK   18  A    between atoms: _40  and  _42
REMARK   19  A    between atoms: _42  and  _43
REMARK   20  A    between atoms: _45  and  _47
REMARK   21  A    between atoms: _47  and  _48
REMARK   22  A    between atoms: _47  and  _50
REMARK   23  A    between atoms: _50  and  _51
REMARK   24  A    between atoms: _53  and  _55
REMARK   25  A    between atoms: _55  and  _56
REMARK   26  A    between atoms: _55  and  _58
REMARK   27  A    between atoms: _60  and  _62
REMARK   28  A    between atoms: _62  and  _63
REMARK   29  A    between atoms: _66  and  _68
REMARK   30  A    between atoms: _68  and  _69
REMARK   31  A    between atoms: _68  and  _71
REMARK   32  A    between atoms: _71  and  _72
REMARK   33  A    between atoms: _78  and  _80
REMARK   34  A    between atoms: _80  and  _81
REMARK   35  A    between atoms: _80  and  _83
REMARK   36  A    between atoms: _83  and  _84
REMARK   37  A    between atoms: _89  and  _90
REMARK   38  A    between atoms: _92  and  _94
REMARK   39  A    between atoms: _94  and  _95
REMARK   40  A    between atoms: _99  and  _100
REMARK   41  A    between atoms: _105  and  _107
REMARK   42  A    between atoms: _107  and  _108
REMARK   43  A    between atoms: _107  and  _110
REMARK   44  A    between atoms: _110  and  _111
REMARK   45  A    between atoms: _113  and  _115
REMARK   46  A    between atoms: _115  and  _116
REMARK   47  A    between atoms: _115  and  _118
REMARK   48  A    between atoms: _118  and  _119
REMARK   49  A    between atoms: _125  and  _127
REMARK   50  A    between atoms: _127  and  _128
REMARK   51  A    between atoms: _127  and  _130
REMARK   52  A    between atoms: _130  and  _131
REMARK   53  A    between atoms: _137  and  _139
REMARK   54  A    between atoms: _139  and  _140
REMARK   55  A    between atoms: _139  and  _142
REMARK   56  A    between atoms: _142  and  _143
REMARK   57  A    between atoms: _146  and  _148
REMARK   58  A    between atoms: _148  and  _149
REMARK   59  A    between atoms: _148  and  _151
REMARK   60  A    between atoms: _151  and  _152
REMARK   61  A    between atoms: _157  and  _158
REMARK   62  A    between atoms: _160  and  _162
REMARK   63  A    between atoms: _162  and  _163
REMARK   64  A    between atoms: _162  and  _165
REMARK   65  A    between atoms: _165  and  _166
REMARK   66  A    between atoms: _166  and  _167
REMARK   67  A    between atoms: _167  and  _168
REMARK   68  A    between atoms: _177  and  _179
REMARK   69  A    between atoms: _179  and  _180
REMARK   70  A    between atoms: _179  and  _182
REMARK   71  A    between atoms: _182  and  _183
REMARK   72  A    between atoms: _185  and  _187
REMARK   73  A    between atoms: _187  and  _188
REMARK   74  A    between atoms: _187  and  _190
REMARK   75  A    between atoms: _190  and  _191
REMARK   76  A    between atoms: _196  and  _198
REMARK   77  A    between atoms: _198  and  _199
REMARK   78  A    between atoms: _198  and  _201
REMARK   79  A    between atoms: _201  and  _202
REMARK   80  A    between atoms: _207  and  _209
REMARK   81  A    between atoms: _209  and  _210
REMARK   82  A    between atoms: _209  and  _212
REMARK   83  A    between atoms: _212  and  _213
REMARK   84  A    between atoms: _215  and  _217
REMARK   85  A    between atoms: _217  and  _218
REMARK   86  A    between atoms: _217  and  _220
REMARK   87  A    between atoms: _220  and  _221
REMARK   88  A    between atoms: _231  and  _233
REMARK   89  A    between atoms: _233  and  _234
REMARK   90  A    between atoms: _236  and  _238
REMARK   91  A    between atoms: _238  and  _239
REMARK   92  A    between atoms: _238  and  _241
REMARK   93  A    between atoms: _241  and  _242
REMARK   94  A    between atoms: _247  and  _249
REMARK   95  A    between atoms: _249  and  _250
REMARK   96  A    between atoms: _249  and  _252
REMARK   97  A    between atoms: _252  and  _253
REMARK   98  A    between atoms: _258  and  _260
REMARK   99  A    between atoms: _260  and  _261
REMARK  100  A    between atoms: _260  and  _263
REMARK  101  A    between atoms: _263  and  _264
REMARK  102  A    between atoms: _270  and  _272
REMARK  103  A    between atoms: _272  and  _273
REMARK  104  A    between atoms: _275  and  _277
REMARK  105  A    between atoms: _277  and  _278
REMARK  106  A    between atoms: _277  and  _280
REMARK  107  A    between atoms: _280  and  _281
REMARK  108  A    between atoms: _281  and  _282
REMARK  109  A    between atoms: _285  and  _287
REMARK  110  A    between atoms: _287  and  _288
REMARK                            x       y       z     vdW  Elec       q    Type
REMARK                         _______ _______ _______ _____ _____    ______ ____
ROOT
ATOM      1  O   HOH     1      13.708  -0.328  21.026  0.00  0.00    +0.000 OA
ENDROOT
TORSDOF 0
REMARK  Name = ../refined-set-2016/3n3g/3n3g_pocket.pdb
REMARK  110 active torsions:
REMARK  status: ('A' for Active; 'I' for Inactive)
REMARK    1  A    between atoms: _1  and  _3
REMARK    2  A    between atoms: _3  and  _4
REMARK    3  A    between atoms: _3  and  _6
REMARK    4  A    between atoms: _6  and  _7
REMARK    5  A    between atoms: _7  and  _8
REMARK    6  A    between atoms: _8  and  _9
REMARK    7  A    between atoms: _9  and  _10
REMARK    8  A    between atoms: _14  and  _16
REMARK    9  A    between atoms: _16  and  _17
REMARK   10  A    between atoms: _16  and  _19
REMARK   11  A    between atoms: _19  and  _20
REMARK   12  A    between atoms: _25  and  _26
REMARK   13  A    between atoms: _28  and  _30
REMARK   14  A    between atoms: _30  and  _31
REMARK   15  A    between atoms: _30  and  _33
REMARK   16  A    between atoms: _33  and  _34
REMARK   17  A    between atoms: _34  and  _35
REMARK   18  A    between atoms: _40  and  _42
REMARK   19  A    between atoms: _42  and  _43
REMARK   20  A    between atoms: _45  and  _47
REMARK   21  A    between atoms: _47  and  _48
REMARK   22  A    between atoms: _47  and  _50
REMARK   23  A    between atoms: _50  and  _51
REMARK   24  A    between atoms: _53  and  _55
REMARK   25  A    between atoms: _55  and  _56
REMARK   26  A    between atoms: _55  and  _58
REMARK   27  A    between atoms: _60  and  _62
REMARK   28  A    between atoms: _62  and  _63
REMARK   29  A    between atoms: _66  and  _68
REMARK   30  A    between atoms: _68  and  _69
REMARK   31  A    between atoms: _68  and  _71
REMARK   32  A    between atoms: _71  and  _72
REMARK   33  A    between atoms: _78  and  _80
REMARK   34  A    between atoms: _80  and  _81
REMARK   35  A    between atoms: _80  and  _83
REMARK   36  A    between atoms: _83  and  _84
REMARK   37  A    between atoms: _89  and  _90
REMARK   38  A    between atoms: _92  and  _94
REMARK   39  A    between atoms: _94  and  _95
REMARK   40  A    between atoms: _99  and  _100
REMARK   41  A    between atoms: _105  and  _107
REMARK   42  A    between atoms: _107  and  _108
REMARK   43  A    between atoms: _107  and  _110
REMARK   44  A    between atoms: _110  and  _111
REMARK   45  A    between atoms: _113  and  _115
REMARK   46  A    between atoms: _115  and  _116
REMARK   47  A    between atoms: _115  and  _118
REMARK   48  A    between atoms: _118  and  _119
REMARK   49  A    between atoms: _125  and  _127
REMARK   50  A    between atoms: _127  and  _128
REMARK   51  A    between atoms: _127  and  _130
REMARK   52  A    between atoms: _130  and  _131
REMARK   53  A    between atoms: _137  and  _139
REMARK   54  A    between atoms: _139  and  _140
REMARK   55  A    between atoms: _139  and  _142
REMARK   56  A    between atoms: _142  and  _143
REMARK   57  A    between atoms: _146  and  _148
REMARK   58  A    between atoms: _148  and  _149
REMARK   59  A    between atoms: _148  and  _151
REMARK   60  A    between atoms: _151  and  _152
REMARK   61  A    between atoms: _157  and  _158
REMARK   62  A    between atoms: _160  and  _162
REMARK   63  A    between atoms: _162  and  _163
REMARK   64  A    between atoms: _162  and  _165
REMARK   65  A    between atoms: _165  and  _166
REMARK   66  A    between atoms: _166  and  _167
REMARK   67  A    between atoms: _167  and  _168
REMARK   68  A    between atoms: _177  and  _179
REMARK   69  A    between atoms: _179  and  _180
REMARK   70  A    between atoms: _179  and  _182
REMARK   71  A    between atoms: _182  and  _183
REMARK   72  A    between atoms: _185  and  _187
REMARK   73  A    between atoms: _187  and  _188
REMARK   74  A    between atoms: _187  and  _190
REMARK   75  A    between atoms: _190  and  _191
REMARK   76  A    between atoms: _196  and  _198
REMARK   77  A    between atoms: _198  and  _199
REMARK   78  A    between atoms: _198  and  _201
REMARK   79  A    between atoms: _201  and  _202
REMARK   80  A    between atoms: _207  and  _209
REMARK   81  A    between atoms: _209  and  _210
REMARK   82  A    between atoms: _209  and  _212
REMARK   83  A    between atoms: _212  and  _213
REMARK   84  A    between atoms: _215  and  _217
REMARK   85  A    between atoms: _217  and  _218
REMARK   86  A    between atoms: _217  and  _220
REMARK   87  A    between atoms: _220  and  _221
REMARK   88  A    between atoms: _231  and  _233
REMARK   89  A    between atoms: _233  and  _234
REMARK   90  A    between atoms: _236  and  _238
REMARK   91  A    between atoms: _238  and  _239
REMARK   92  A    between atoms: _238  and  _241
REMARK   93  A    between atoms: _241  and  _242
REMARK   94  A    between atoms: _247  and  _249
REMARK   95  A    between atoms: _249  and  _250
REMARK   96  A    between atoms: _249  and  _252
REMARK   97  A    between atoms: _252  and  _253
REMARK   98  A    between atoms: _258  and  _260
REMARK   99  A    between atoms: _260  and  _261
REMARK  100  A    between atoms: _260  and  _263
REMARK  101  A    between atoms: _263  and  _264
REMARK  102  A    between atoms: _270  and  _272
REMARK  103  A    between atoms: _272  and  _273
REMARK  104  A    between atoms: _275  and  _277
REMARK  105  A    between atoms: _277  and  _278
REMARK  106  A    between atoms: _277  and  _280
REMARK  107  A    between atoms: _280  and  _281
REMARK  108  A    between atoms: _281  and  _282
REMARK  109  A    between atoms: _285  and  _287
REMARK  110  A    between atoms: _287  and  _288
REMARK                            x       y       z     vdW  Elec       q    Type
REMARK                         _______ _______ _______ _____ _____    ______ ____
ROOT
ATOM      1  O   HOH     1      17.278 -14.275  10.207  0.00  0.00    +0.000 OA
ENDROOT
TORSDOF 0
REMARK  Name = ../refined-set-2016/3n3g/3n3g_pocket.pdb
REMARK  110 active torsions:
REMARK  status: ('A' for Active; 'I' for Inactive)
REMARK    1  A    between atoms: _1  and  _3
REMARK    2  A    between atoms: _3  and  _4
REMARK    3  A    between atoms: _3  and  _6
REMARK    4  A    between atoms: _6  and  _7
REMARK    5  A    between atoms: _7  and  _8
REMARK    6  A    between atoms: _8  and  _9
REMARK    7  A    between atoms: _9  and  _10
REMARK    8  A    between atoms: _14  and  _16
REMARK    9  A    between atoms: _16  and  _17
REMARK   10  A    between atoms: _16  and  _19
REMARK   11  A    between atoms: _19  and  _20
REMARK   12  A    between atoms: _25  and  _26
REMARK   13  A    between atoms: _28  and  _30
REMARK   14  A    between atoms: _30  and  _31
REMARK   15  A    between atoms: _30  and  _33
REMARK   16  A    between atoms: _33  and  _34
REMARK   17  A    between atoms: _34  and  _35
REMARK   18  A    between atoms: _40  and  _42
REMARK   19  A    between atoms: _42  and  _43
REMARK   20  A    between atoms: _45  and  _47
REMARK   21  A    between atoms: _47  and  _48
REMARK   22  A    between atoms: _47  and  _50
REMARK   23  A    between atoms: _50  and  _51
REMARK   24  A    between atoms: _53  and  _55
REMARK   25  A    between atoms: _55  and  _56
REMARK   26  A    between atoms: _55  and  _58
REMARK   27  A    between atoms: _60  and  _62
REMARK   28  A    between atoms: _62  and  _63
REMARK   29  A    between atoms: _66  and  _68
REMARK   30  A    between atoms: _68  and  _69
REMARK   31  A    between atoms: _68  and  _71
REMARK   32  A    between atoms: _71  and  _72
REMARK   33  A    between atoms: _78  and  _80
REMARK   34  A    between atoms: _80  and  _81
REMARK   35  A    between atoms: _80  and  _83
REMARK   36  A    between atoms: _83  and  _84
REMARK   37  A    between atoms: _89  and  _90
REMARK   38  A    between atoms: _92  and  _94
REMARK   39  A    between atoms: _94  and  _95
REMARK   40  A    between atoms: _99  and  _100
REMARK   41  A    between atoms: _105  and  _107
REMARK   42  A    between atoms: _107  and  _108
REMARK   43  A    between atoms: _107  and  _110
REMARK   44  A    between atoms: _110  and  _111
REMARK   45  A    between atoms: _113  and  _115
REMARK   46  A    between atoms: _115  and  _116
REMARK   47  A    between atoms: _115  and  _118
REMARK   48  A    between atoms: _118  and  _119
REMARK   49  A    between atoms: _125  and  _127
REMARK   50  A    between atoms: _127  and  _128
REMARK   51  A    between atoms: _127  and  _130
REMARK   52  A    between atoms: _130  and  _131
REMARK   53  A    between atoms: _137  and  _139
REMARK   54  A    between atoms: _139  and  _140
REMARK   55  A    between atoms: _139  and  _142
REMARK   56  A    between atoms: _142  and  _143
REMARK   57  A    between atoms: _146  and  _148
REMARK   58  A    between atoms: _148  and  _149
REMARK   59  A    between atoms: _148  and  _151
REMARK   60  A    between atoms: _151  and  _152
REMARK   61  A    between atoms: _157  and  _158
REMARK   62  A    between atoms: _160  and  _162
REMARK   63  A    between atoms: _162  and  _163
REMARK   64  A    between atoms: _162  and  _165
REMARK   65  A    between atoms: _165  and  _166
REMARK   66  A    between atoms: _166  and  _167
REMARK   67  A    between atoms: _167  and  _168
REMARK   68  A    between atoms: _177  and  _179
REMARK   69  A    between atoms: _179  and  _180
REMARK   70  A    between atoms: _179  and  _182
REMARK   71  A    between atoms: _182  and  _183
REMARK   72  A    between atoms: _185  and  _187
REMARK   73  A    between atoms: _187  and  _188
REMARK   74  A    between atoms: _187  and  _190
REMARK   75  A    between atoms: _190  and  _191
REMARK   76  A    between atoms: _196  and  _198
REMARK   77  A    between atoms: _198  and  _199
REMARK   78  A    between atoms: _198  and  _201
REMARK   79  A    between atoms: _201  and  _202
REMARK   80  A    between atoms: _207  and  _209
REMARK   81  A    between atoms: _209  and  _210
REMARK   82  A    between atoms: _209  and  _212
REMARK   83  A    between atoms: _212  and  _213
REMARK   84  A    between atoms: _215  and  _217
REMARK   85  A    between atoms: _217  and  _218
REMARK   86  A    between atoms: _217  and  _220
REMARK   87  A    between atoms: _220  and  _221
REMARK   88  A    between atoms: _231  and  _233
REMARK   89  A    between atoms: _233  and  _234
REMARK   90  A    between atoms: _236  and  _238
REMARK   91  A    between atoms: _238  and  _239
REMARK   92  A    between atoms: _238  and  _241
REMARK   93  A    between atoms: _241  and  _242
REMARK   94  A    between atoms: _247  and  _249
REMARK   95  A    between atoms: _249  and  _250
REMARK   96  A    between atoms: _249  and  _252
REMARK   97  A    between atoms: _252  and  _253
REMARK   98  A    between atoms: _258  and  _260
REMARK   99  A    between atoms: _260  and  _261
REMARK  100  A    between atoms: _260  and  _263
REMARK  101  A    between atoms: _263  and  _264
REMARK  102  A    between atoms: _270  and  _272
REMARK  103  A    between atoms: _272  and  _273
REMARK  104  A    between atoms: _275  and  _277
REMARK  105  A    between atoms: _277  and  _278
REMARK  106  A    between atoms: _277  and  _280
REMARK  107  A    between atoms: _280  and  _281
REMARK  108  A    between atoms: _281  and  _282
REMARK  109  A    between atoms: _285  and  _287
REMARK  110  A    between atoms: _287  and  _288
REMARK                            x       y       z     vdW  Elec       q    Type
REMARK                         _______ _______ _______ _____ _____    ______ ____
ROOT
ATOM      1  O   HOH     1      15.204 -12.713   6.800  0.00  0.00    +0.000 OA
ENDROOT
TORSDOF 0
REMARK  Name = ../refined-set-2016/3n3g/3n3g_pocket.pdb
REMARK  110 active torsions:
REMARK  status: ('A' for Active; 'I' for Inactive)
REMARK    1  A    between atoms: _1  and  _3
REMARK    2  A    between atoms: _3  and  _4
REMARK    3  A    between atoms: _3  and  _6
REMARK    4  A    between atoms: _6  and  _7
REMARK    5  A    between atoms: _7  and  _8
REMARK    6  A    between atoms: _8  and  _9
REMARK    7  A    between atoms: _9  and  _10
REMARK    8  A    between atoms: _14  and  _16
REMARK    9  A    between atoms: _16  and  _17
REMARK   10  A    between atoms: _16  and  _19
REMARK   11  A    between atoms: _19  and  _20
REMARK   12  A    between atoms: _25  and  _26
REMARK   13  A    between atoms: _28  and  _30
REMARK   14  A    between atoms: _30  and  _31
REMARK   15  A    between atoms: _30  and  _33
REMARK   16  A    between atoms: _33  and  _34
REMARK   17  A    between atoms: _34  and  _35
REMARK   18  A    between atoms: _40  and  _42
REMARK   19  A    between atoms: _42  and  _43
REMARK   20  A    between atoms: _45  and  _47
REMARK   21  A    between atoms: _47  and  _48
REMARK   22  A    between atoms: _47  and  _50
REMARK   23  A    between atoms: _50  and  _51
REMARK   24  A    between atoms: _53  and  _55
REMARK   25  A    between atoms: _55  and  _56
REMARK   26  A    between atoms: _55  and  _58
REMARK   27  A    between atoms: _60  and  _62
REMARK   28  A    between atoms: _62  and  _63
REMARK   29  A    between atoms: _66  and  _68
REMARK   30  A    between atoms: _68  and  _69
REMARK   31  A    between atoms: _68  and  _71
REMARK   32  A    between atoms: _71  and  _72
REMARK   33  A    between atoms: _78  and  _80
REMARK   34  A    between atoms: _80  and  _81
REMARK   35  A    between atoms: _80  and  _83
REMARK   36  A    between atoms: _83  and  _84
REMARK   37  A    between atoms: _89  and  _90
REMARK   38  A    between atoms: _92  and  _94
REMARK   39  A    between atoms: _94  and  _95
REMARK   40  A    between atoms: _99  and  _100
REMARK   41  A    between atoms: _105  and  _107
REMARK   42  A    between atoms: _107  and  _108
REMARK   43  A    between atoms: _107  and  _110
REMARK   44  A    between atoms: _110  and  _111
REMARK   45  A    between atoms: _113  and  _115
REMARK   46  A    between atoms: _115  and  _116
REMARK   47  A    between atoms: _115  and  _118
REMARK   48  A    between atoms: _118  and  _119
REMARK   49  A    between atoms: _125  and  _127
REMARK   50  A    between atoms: _127  and  _128
REMARK   51  A    between atoms: _127  and  _130
REMARK   52  A    between atoms: _130  and  _131
REMARK   53  A    between atoms: _137  and  _139
REMARK   54  A    between atoms: _139  and  _140
REMARK   55  A    between atoms: _139  and  _142
REMARK   56  A    between atoms: _142  and  _143
REMARK   57  A    between atoms: _146  and  _148
REMARK   58  A    between atoms: _148  and  _149
REMARK   59  A    between atoms: _148  and  _151
REMARK   60  A    between atoms: _151  and  _152
REMARK   61  A    between atoms: _157  and  _158
REMARK   62  A    between atoms: _160  and  _162
REMARK   63  A    between atoms: _162  and  _163
REMARK   64  A    between atoms: _162  and  _165
REMARK   65  A    between atoms: _165  and  _166
REMARK   66  A    between atoms: _166  and  _167
REMARK   67  A    between atoms: _167  and  _168
REMARK   68  A    between atoms: _177  and  _179
REMARK   69  A    between atoms: _179  and  _180
REMARK   70  A    between atoms: _179  and  _182
REMARK   71  A    between atoms: _182  and  _183
REMARK   72  A    between atoms: _185  and  _187
REMARK   73  A    between atoms: _187  and  _188
REMARK   74  A    between atoms: _187  and  _190
REMARK   75  A    between atoms: _190  and  _191
REMARK   76  A    between atoms: _196  and  _198
REMARK   77  A    between atoms: _198  and  _199
REMARK   78  A    between atoms: _198  and  _201
REMARK   79  A    between atoms: _201  and  _202
REMARK   80  A    between atoms: _207  and  _209
REMARK   81  A    between atoms: _209  and  _210
REMARK   82  A    between atoms: _209  and  _212
REMARK   83  A    between atoms: _212  and  _213
REMARK   84  A    between atoms: _215  and  _217
REMARK   85  A    between atoms: _217  and  _218
REMARK   86  A    between atoms: _217  and  _220
REMARK   87  A    between atoms: _220  and  _221
REMARK   88  A    between atoms: _231  and  _233
REMARK   89  A    between atoms: _233  and  _234
REMARK   90  A    between atoms: _236  and  _238
REMARK   91  A    between atoms: _238  and  _239
REMARK   92  A    between atoms: _238  and  _241
REMARK   93  A    between atoms: _241  and  _242
REMARK   94  A    between atoms: _247  and  _249
REMARK   95  A    between atoms: _249  and  _250
REMARK   96  A    between atoms: _249  and  _252
REMARK   97  A    between atoms: _252  and  _253
REMARK   98  A    between atoms: _258  and  _260
REMARK   99  A    between atoms: _260  and  _261
REMARK  100  A    between atoms: _260  and  _263
REMARK  101  A    between atoms: _263  and  _264
REMARK  102  A    between atoms: _270  and  _272
REMARK  103  A    between atoms: _272  and  _273
REMARK  104  A    between atoms: _275  and  _277
REMARK  105  A    between atoms: _277  and  _278
REMARK  106  A    between atoms: _277  and  _280
REMARK  107  A    between atoms: _280  and  _281
REMARK  108  A    between atoms: _281  and  _282
REMARK  109  A    between atoms: _285  and  _287
REMARK  110  A    between atoms: _287  and  _288
REMARK                            x       y       z     vdW  Elec       q    Type
REMARK                         _______ _______ _______ _____ _____    ______ ____
ROOT
ATOM      1  O   HOH     1       6.764  -8.139   6.110  0.00  0.00    +0.000 OA
ENDROOT
TORSDOF 0
REMARK  Name = ../refined-set-2016/3n3g/3n3g_pocket.pdb
REMARK  110 active torsions:
REMARK  status: ('A' for Active; 'I' for Inactive)
REMARK    1  A    between atoms: _1  and  _3
REMARK    2  A    between atoms: _3  and  _4
REMARK    3  A    between atoms: _3  and  _6
REMARK    4  A    between atoms: _6  and  _7
REMARK    5  A    between atoms: _7  and  _8
REMARK    6  A    between atoms: _8  and  _9
REMARK    7  A    between atoms: _9  and  _10
REMARK    8  A    between atoms: _14  and  _16
REMARK    9  A    between atoms: _16  and  _17
REMARK   10  A    between atoms: _16  and  _19
REMARK   11  A    between atoms: _19  and  _20
REMARK   12  A    between atoms: _25  and  _26
REMARK   13  A    between atoms: _28  and  _30
REMARK   14  A    between atoms: _30  and  _31
REMARK   15  A    between atoms: _30  and  _33
REMARK   16  A    between atoms: _33  and  _34
REMARK   17  A    between atoms: _34  and  _35
REMARK   18  A    between atoms: _40  and  _42
REMARK   19  A    between atoms: _42  and  _43
REMARK   20  A    between atoms: _45  and  _47
REMARK   21  A    between atoms: _47  and  _48
REMARK   22  A    between atoms: _47  and  _50
REMARK   23  A    between atoms: _50  and  _51
REMARK   24  A    between atoms: _53  and  _55
REMARK   25  A    between atoms: _55  and  _56
REMARK   26  A    between atoms: _55  and  _58
REMARK   27  A    between atoms: _60  and  _62
REMARK   28  A    between atoms: _62  and  _63
REMARK   29  A    between atoms: _66  and  _68
REMARK   30  A    between atoms: _68  and  _69
REMARK   31  A    between atoms: _68  and  _71
REMARK   32  A    between atoms: _71  and  _72
REMARK   33  A    between atoms: _78  and  _80
REMARK   34  A    between atoms: _80  and  _81
REMARK   35  A    between atoms: _80  and  _83
REMARK   36  A    between atoms: _83  and  _84
REMARK   37  A    between atoms: _89  and  _90
REMARK   38  A    between atoms: _92  and  _94
REMARK   39  A    between atoms: _94  and  _95
REMARK   40  A    between atoms: _99  and  _100
REMARK   41  A    between atoms: _105  and  _107
REMARK   42  A    between atoms: _107  and  _108
REMARK   43  A    between atoms: _107  and  _110
REMARK   44  A    between atoms: _110  and  _111
REMARK   45  A    between atoms: _113  and  _115
REMARK   46  A    between atoms: _115  and  _116
REMARK   47  A    between atoms: _115  and  _118
REMARK   48  A    between atoms: _118  and  _119
REMARK   49  A    between atoms: _125  and  _127
REMARK   50  A    between atoms: _127  and  _128
REMARK   51  A    between atoms: _127  and  _130
REMARK   52  A    between atoms: _130  and  _131
REMARK   53  A    between atoms: _137  and  _139
REMARK   54  A    between atoms: _139  and  _140
REMARK   55  A    between atoms: _139  and  _142
REMARK   56  A    between atoms: _142  and  _143
REMARK   57  A    between atoms: _146  and  _148
REMARK   58  A    between atoms: _148  and  _149
REMARK   59  A    between atoms: _148  and  _151
REMARK   60  A    between atoms: _151  and  _152
REMARK   61  A    between atoms: _157  and  _158
REMARK   62  A    between atoms: _160  and  _162
REMARK   63  A    between atoms: _162  and  _163
REMARK   64  A    between atoms: _162  and  _165
REMARK   65  A    between atoms: _165  and  _166
REMARK   66  A    between atoms: _166  and  _167
REMARK   67  A    between atoms: _167  and  _168
REMARK   68  A    between atoms: _177  and  _179
REMARK   69  A    between atoms: _179  and  _180
REMARK   70  A    between atoms: _179  and  _182
REMARK   71  A    between atoms: _182  and  _183
REMARK   72  A    between atoms: _185  and  _187
REMARK   73  A    between atoms: _187  and  _188
REMARK   74  A    between atoms: _187  and  _190
REMARK   75  A    between atoms: _190  and  _191
REMARK   76  A    between atoms: _196  and  _198
REMARK   77  A    between atoms: _198  and  _199
REMARK   78  A    between atoms: _198  and  _201
REMARK   79  A    between atoms: _201  and  _202
REMARK   80  A    between atoms: _207  and  _209
REMARK   81  A    between atoms: _209  and  _210
REMARK   82  A    between atoms: _209  and  _212
REMARK   83  A    between atoms: _212  and  _213
REMARK   84  A    between atoms: _215  and  _217
REMARK   85  A    between atoms: _217  and  _218
REMARK   86  A    between atoms: _217  and  _220
REMARK   87  A    between atoms: _220  and  _221
REMARK   88  A    between atoms: _231  and  _233
REMARK   89  A    between atoms: _233  and  _234
REMARK   90  A    between atoms: _236  and  _238
REMARK   91  A    between atoms: _238  and  _239
REMARK   92  A    between atoms: _238  and  _241
REMARK   93  A    between atoms: _241  and  _242
REMARK   94  A    between atoms: _247  and  _249
REMARK   95  A    between atoms: _249  and  _250
REMARK   96  A    between atoms: _249  and  _252
REMARK   97  A    between atoms: _252  and  _253
REMARK   98  A    between atoms: _258  and  _260
REMARK   99  A    between atoms: _260  and  _261
REMARK  100  A    between atoms: _260  and  _263
REMARK  101  A    between atoms: _263  and  _264
REMARK  102  A    between atoms: _270  and  _272
REMARK  103  A    between atoms: _272  and  _273
REMARK  104  A    between atoms: _275  and  _277
REMARK  105  A    between atoms: _277  and  _278
REMARK  106  A    between atoms: _277  and  _280
REMARK  107  A    between atoms: _280  and  _281
REMARK  108  A    between atoms: _281  and  _282
REMARK  109  A    between atoms: _285  and  _287
REMARK  110  A    between atoms: _287  and  _288
REMARK                            x       y       z     vdW  Elec       q    Type
REMARK                         _______ _______ _______ _____ _____    ______ ____
ROOT
ATOM      1  O   HOH     1      13.119  -0.030  23.661  0.00  0.00    +0.000 OA
ENDROOT
TORSDOF 0
REMARK  Name = ../refined-set-2016/3n3g/3n3g_pocket.pdb
REMARK  110 active torsions:
REMARK  status: ('A' for Active; 'I' for Inactive)
REMARK    1  A    between atoms: _1  and  _3
REMARK    2  A    between atoms: _3  and  _4
REMARK    3  A    between atoms: _3  and  _6
REMARK    4  A    between atoms: _6  and  _7
REMARK    5  A    between atoms: _7  and  _8
REMARK    6  A    between atoms: _8  and  _9
REMARK    7  A    between atoms: _9  and  _10
REMARK    8  A    between atoms: _14  and  _16
REMARK    9  A    between atoms: _16  and  _17
REMARK   10  A    between atoms: _16  and  _19
REMARK   11  A    between atoms: _19  and  _20
REMARK   12  A    between atoms: _25  and  _26
REMARK   13  A    between atoms: _28  and  _30
REMARK   14  A    between atoms: _30  and  _31
REMARK   15  A    between atoms: _30  and  _33
REMARK   16  A    between atoms: _33  and  _34
REMARK   17  A    between atoms: _34  and  _35
REMARK   18  A    between atoms: _40  and  _42
REMARK   19  A    between atoms: _42  and  _43
REMARK   20  A    between atoms: _45  and  _47
REMARK   21  A    between atoms: _47  and  _48
REMARK   22  A    between atoms: _47  and  _50
REMARK   23  A    between atoms: _50  and  _51
REMARK   24  A    between atoms: _53  and  _55
REMARK   25  A    between atoms: _55  and  _56
REMARK   26  A    between atoms: _55  and  _58
REMARK   27  A    between atoms: _60  and  _62
REMARK   28  A    between atoms: _62  and  _63
REMARK   29  A    between atoms: _66  and  _68
REMARK   30  A    between atoms: _68  and  _69
REMARK   31  A    between atoms: _68  and  _71
REMARK   32  A    between atoms: _71  and  _72
REMARK   33  A    between atoms: _78  and  _80
REMARK   34  A    between atoms: _80  and  _81
REMARK   35  A    between atoms: _80  and  _83
REMARK   36  A    between atoms: _83  and  _84
REMARK   37  A    between atoms: _89  and  _90
REMARK   38  A    between atoms: _92  and  _94
REMARK   39  A    between atoms: _94  and  _95
REMARK   40  A    between atoms: _99  and  _100
REMARK   41  A    between atoms: _105  and  _107
REMARK   42  A    between atoms: _107  and  _108
REMARK   43  A    between atoms: _107  and  _110
REMARK   44  A    between atoms: _110  and  _111
REMARK   45  A    between atoms: _113  and  _115
REMARK   46  A    between atoms: _115  and  _116
REMARK   47  A    between atoms: _115  and  _118
REMARK   48  A    between atoms: _118  and  _119
REMARK   49  A    between atoms: _125  and  _127
REMARK   50  A    between atoms: _127  and  _128
REMARK   51  A    between atoms: _127  and  _130
REMARK   52  A    between atoms: _130  and  _131
REMARK   53  A    between atoms: _137  and  _139
REMARK   54  A    between atoms: _139  and  _140
REMARK   55  A    between atoms: _139  and  _142
REMARK   56  A    between atoms: _142  and  _143
REMARK   57  A    between atoms: _146  and  _148
REMARK   58  A    between atoms: _148  and  _149
REMARK   59  A    between atoms: _148  and  _151
REMARK   60  A    between atoms: _151  and  _152
REMARK   61  A    between atoms: _157  and  _158
REMARK   62  A    between atoms: _160  and  _162
REMARK   63  A    between atoms: _162  and  _163
REMARK   64  A    between atoms: _162  and  _165
REMARK   65  A    between atoms: _165  and  _166
REMARK   66  A    between atoms: _166  and  _167
REMARK   67  A    between atoms: _167  and  _168
REMARK   68  A    between atoms: _177  and  _179
REMARK   69  A    between atoms: _179  and  _180
REMARK   70  A    between atoms: _179  and  _182
REMARK   71  A    between atoms: _182  and  _183
REMARK   72  A    between atoms: _185  and  _187
REMARK   73  A    between atoms: _187  and  _188
REMARK   74  A    between atoms: _187  and  _190
REMARK   75  A    between atoms: _190  and  _191
REMARK   76  A    between atoms: _196  and  _198
REMARK   77  A    between atoms: _198  and  _199
REMARK   78  A    between atoms: _198  and  _201
REMARK   79  A    between atoms: _201  and  _202
REMARK   80  A    between atoms: _207  and  _209
REMARK   81  A    between atoms: _209  and  _210
REMARK   82  A    between atoms: _209  and  _212
REMARK   83  A    between atoms: _212  and  _213
REMARK   84  A    between atoms: _215  and  _217
REMARK   85  A    between atoms: _217  and  _218
REMARK   86  A    between atoms: _217  and  _220
REMARK   87  A    between atoms: _220  and  _221
REMARK   88  A    between atoms: _231  and  _233
REMARK   89  A    between atoms: _233  and  _234
REMARK   90  A    between atoms: _236  and  _238
REMARK   91  A    between atoms: _238  and  _239
REMARK   92  A    between atoms: _238  and  _241
REMARK   93  A    between atoms: _241  and  _242
REMARK   94  A    between atoms: _247  and  _249
REMARK   95  A    between atoms: _249  and  _250
REMARK   96  A    between atoms: _249  and  _252
REMARK   97  A    between atoms: _252  and  _253
REMARK   98  A    between atoms: _258  and  _260
REMARK   99  A    between atoms: _260  and  _261
REMARK  100  A    between atoms: _260  and  _263
REMARK  101  A    between atoms: _263  and  _264
REMARK  102  A    between atoms: _270  and  _272
REMARK  103  A    between atoms: _272  and  _273
REMARK  104  A    between atoms: _275  and  _277
REMARK  105  A    between atoms: _277  and  _278
REMARK  106  A    between atoms: _277  and  _280
REMARK  107  A    between atoms: _280  and  _281
REMARK  108  A    between atoms: _281  and  _282
REMARK  109  A    between atoms: _285  and  _287
REMARK  110  A    between atoms: _287  and  _288
REMARK                            x       y       z     vdW  Elec       q    Type
REMARK                         _______ _______ _______ _____ _____    ______ ____
ROOT
ATOM      1  O   HOH     1      21.069 -11.187  16.825  0.00  0.00    +0.000 OA
ENDROOT
TORSDOF 0
REMARK  Name = ../refined-set-2016/3n3g/3n3g_pocket.pdb
REMARK  110 active torsions:
REMARK  status: ('A' for Active; 'I' for Inactive)
REMARK    1  A    between atoms: _1  and  _3
REMARK    2  A    between atoms: _3  and  _4
REMARK    3  A    between atoms: _3  and  _6
REMARK    4  A    between atoms: _6  and  _7
REMARK    5  A    between atoms: _7  and  _8
REMARK    6  A    between atoms: _8  and  _9
REMARK    7  A    between atoms: _9  and  _10
REMARK    8  A    between atoms: _14  and  _16
REMARK    9  A    between atoms: _16  and  _17
REMARK   10  A    between atoms: _16  and  _19
REMARK   11  A    between atoms: _19  and  _20
REMARK   12  A    between atoms: _25  and  _26
REMARK   13  A    between atoms: _28  and  _30
REMARK   14  A    between atoms: _30  and  _31
REMARK   15  A    between atoms: _30  and  _33
REMARK   16  A    between atoms: _33  and  _34
REMARK   17  A    between atoms: _34  and  _35
REMARK   18  A    between atoms: _40  and  _42
REMARK   19  A    between atoms: _42  and  _43
REMARK   20  A    between atoms: _45  and  _47
REMARK   21  A    between atoms: _47  and  _48
REMARK   22  A    between atoms: _47  and  _50
REMARK   23  A    between atoms: _50  and  _51
REMARK   24  A    between atoms: _53  and  _55
REMARK   25  A    between atoms: _55  and  _56
REMARK   26  A    between atoms: _55  and  _58
REMARK   27  A    between atoms: _60  and  _62
REMARK   28  A    between atoms: _62  and  _63
REMARK   29  A    between atoms: _66  and  _68
REMARK   30  A    between atoms: _68  and  _69
REMARK   31  A    between atoms: _68  and  _71
REMARK   32  A    between atoms: _71  and  _72
REMARK   33  A    between atoms: _78  and  _80
REMARK   34  A    between atoms: _80  and  _81
REMARK   35  A    between atoms: _80  and  _83
REMARK   36  A    between atoms: _83  and  _84
REMARK   37  A    between atoms: _89  and  _90
REMARK   38  A    between atoms: _92  and  _94
REMARK   39  A    between atoms: _94  and  _95
REMARK   40  A    between atoms: _99  and  _100
REMARK   41  A    between atoms: _105  and  _107
REMARK   42  A    between atoms: _107  and  _108
REMARK   43  A    between atoms: _107  and  _110
REMARK   44  A    between atoms: _110  and  _111
REMARK   45  A    between atoms: _113  and  _115
REMARK   46  A    between atoms: _115  and  _116
REMARK   47  A    between atoms: _115  and  _118
REMARK   48  A    between atoms: _118  and  _119
REMARK   49  A    between atoms: _125  and  _127
REMARK   50  A    between atoms: _127  and  _128
REMARK   51  A    between atoms: _127  and  _130
REMARK   52  A    between atoms: _130  and  _131
REMARK   53  A    between atoms: _137  and  _139
REMARK   54  A    between atoms: _139  and  _140
REMARK   55  A    between atoms: _139  and  _142
REMARK   56  A    between atoms: _142  and  _143
REMARK   57  A    between atoms: _146  and  _148
REMARK   58  A    between atoms: _148  and  _149
REMARK   59  A    between atoms: _148  and  _151
REMARK   60  A    between atoms: _151  and  _152
REMARK   61  A    between atoms: _157  and  _158
REMARK   62  A    between atoms: _160  and  _162
REMARK   63  A    between atoms: _162  and  _163
REMARK   64  A    between atoms: _162  and  _165
REMARK   65  A    between atoms: _165  and  _166
REMARK   66  A    between atoms: _166  and  _167
REMARK   67  A    between atoms: _167  and  _168
REMARK   68  A    between atoms: _177  and  _179
REMARK   69  A    between atoms: _179  and  _180
REMARK   70  A    between atoms: _179  and  _182
REMARK   71  A    between atoms: _182  and  _183
REMARK   72  A    between atoms: _185  and  _187
REMARK   73  A    between atoms: _187  and  _188
REMARK   74  A    between atoms: _187  and  _190
REMARK   75  A    between atoms: _190  and  _191
REMARK   76  A    between atoms: _196  and  _198
REMARK   77  A    between atoms: _198  and  _199
REMARK   78  A    between atoms: _198  and  _201
REMARK   79  A    between atoms: _201  and  _202
REMARK   80  A    between atoms: _207  and  _209
REMARK   81  A    between atoms: _209  and  _210
REMARK   82  A    between atoms: _209  and  _212
REMARK   83  A    between atoms: _212  and  _213
REMARK   84  A    between atoms: _215  and  _217
REMARK   85  A    between atoms: _217  and  _218
REMARK   86  A    between atoms: _217  and  _220
REMARK   87  A    between atoms: _220  and  _221
REMARK   88  A    between atoms: _231  and  _233
REMARK   89  A    between atoms: _233  and  _234
REMARK   90  A    between atoms: _236  and  _238
REMARK   91  A    between atoms: _238  and  _239
REMARK   92  A    between atoms: _238  and  _241
REMARK   93  A    between atoms: _241  and  _242
REMARK   94  A    between atoms: _247  and  _249
REMARK   95  A    between atoms: _249  and  _250
REMARK   96  A    between atoms: _249  and  _252
REMARK   97  A    between atoms: _252  and  _253
REMARK   98  A    between atoms: _258  and  _260
REMARK   99  A    between atoms: _260  and  _261
REMARK  100  A    between atoms: _260  and  _263
REMARK  101  A    between atoms: _263  and  _264
REMARK  102  A    between atoms: _270  and  _272
REMARK  103  A    between atoms: _272  and  _273
REMARK  104  A    between atoms: _275  and  _277
REMARK  105  A    between atoms: _277  and  _278
REMARK  106  A    between atoms: _277  and  _280
REMARK  107  A    between atoms: _280  and  _281
REMARK  108  A    between atoms: _281  and  _282
REMARK  109  A    between atoms: _285  and  _287
REMARK  110  A    between atoms: _287  and  _288
REMARK                            x       y       z     vdW  Elec       q    Type
REMARK                         _______ _______ _______ _____ _____    ______ ____
ROOT
ATOM      1  O   HOH     1       4.847  -8.983   8.339  0.00  0.00    +0.000 OA
ENDROOT
TORSDOF 0
REMARK  Name = ../refined-set-2016/3n3g/3n3g_pocket.pdb
REMARK  110 active torsions:
REMARK  status: ('A' for Active; 'I' for Inactive)
REMARK    1  A    between atoms: _1  and  _3
REMARK    2  A    between atoms: _3  and  _4
REMARK    3  A    between atoms: _3  and  _6
REMARK    4  A    between atoms: _6  and  _7
REMARK    5  A    between atoms: _7  and  _8
REMARK    6  A    between atoms: _8  and  _9
REMARK    7  A    between atoms: _9  and  _10
REMARK    8  A    between atoms: _14  and  _16
REMARK    9  A    between atoms: _16  and  _17
REMARK   10  A    between atoms: _16  and  _19
REMARK   11  A    between atoms: _19  and  _20
REMARK   12  A    between atoms: _25  and  _26
REMARK   13  A    between atoms: _28  and  _30
REMARK   14  A    between atoms: _30  and  _31
REMARK   15  A    between atoms: _30  and  _33
REMARK   16  A    between atoms: _33  and  _34
REMARK   17  A    between atoms: _34  and  _35
REMARK   18  A    between atoms: _40  and  _42
REMARK   19  A    between atoms: _42  and  _43
REMARK   20  A    between atoms: _45  and  _47
REMARK   21  A    between atoms: _47  and  _48
REMARK   22  A    between atoms: _47  and  _50
REMARK   23  A    between atoms: _50  and  _51
REMARK   24  A    between atoms: _53  and  _55
REMARK   25  A    between atoms: _55  and  _56
REMARK   26  A    between atoms: _55  and  _58
REMARK   27  A    between atoms: _60  and  _62
REMARK   28  A    between atoms: _62  and  _63
REMARK   29  A    between atoms: _66  and  _68
REMARK   30  A    between atoms: _68  and  _69
REMARK   31  A    between atoms: _68  and  _71
REMARK   32  A    between atoms: _71  and  _72
REMARK   33  A    between atoms: _78  and  _80
REMARK   34  A    between atoms: _80  and  _81
REMARK   35  A    between atoms: _80  and  _83
REMARK   36  A    between atoms: _83  and  _84
REMARK   37  A    between atoms: _89  and  _90
REMARK   38  A    between atoms: _92  and  _94
REMARK   39  A    between atoms: _94  and  _95
REMARK   40  A    between atoms: _99  and  _100
REMARK   41  A    between atoms: _105  and  _107
REMARK   42  A    between atoms: _107  and  _108
REMARK   43  A    between atoms: _107  and  _110
REMARK   44  A    between atoms: _110  and  _111
REMARK   45  A    between atoms: _113  and  _115
REMARK   46  A    between atoms: _115  and  _116
REMARK   47  A    between atoms: _115  and  _118
REMARK   48  A    between atoms: _118  and  _119
REMARK   49  A    between atoms: _125  and  _127
REMARK   50  A    between atoms: _127  and  _128
REMARK   51  A    between atoms: _127  and  _130
REMARK   52  A    between atoms: _130  and  _131
REMARK   53  A    between atoms: _137  and  _139
REMARK   54  A    between atoms: _139  and  _140
REMARK   55  A    between atoms: _139  and  _142
REMARK   56  A    between atoms: _142  and  _143
REMARK   57  A    between atoms: _146  and  _148
REMARK   58  A    between atoms: _148  and  _149
REMARK   59  A    between atoms: _148  and  _151
REMARK   60  A    between atoms: _151  and  _152
REMARK   61  A    between atoms: _157  and  _158
REMARK   62  A    between atoms: _160  and  _162
REMARK   63  A    between atoms: _162  and  _163
REMARK   64  A    between atoms: _162  and  _165
REMARK   65  A    between atoms: _165  and  _166
REMARK   66  A    between atoms: _166  and  _167
REMARK   67  A    between atoms: _167  and  _168
REMARK   68  A    between atoms: _177  and  _179
REMARK   69  A    between atoms: _179  and  _180
REMARK   70  A    between atoms: _179  and  _182
REMARK   71  A    between atoms: _182  and  _183
REMARK   72  A    between atoms: _185  and  _187
REMARK   73  A    between atoms: _187  and  _188
REMARK   74  A    between atoms: _187  and  _190
REMARK   75  A    between atoms: _190  and  _191
REMARK   76  A    between atoms: _196  and  _198
REMARK   77  A    between atoms: _198  and  _199
REMARK   78  A    between atoms: _198  and  _201
REMARK   79  A    between atoms: _201  and  _202
REMARK   80  A    between atoms: _207  and  _209
REMARK   81  A    between atoms: _209  and  _210
REMARK   82  A    between atoms: _209  and  _212
REMARK   83  A    between atoms: _212  and  _213
REMARK   84  A    between atoms: _215  and  _217
REMARK   85  A    between atoms: _217  and  _218
REMARK   86  A    between atoms: _217  and  _220
REMARK   87  A    between atoms: _220  and  _221
REMARK   88  A    between atoms: _231  and  _233
REMARK   89  A    between atoms: _233  and  _234
REMARK   90  A    between atoms: _236  and  _238
REMARK   91  A    between atoms: _238  and  _239
REMARK   92  A    between atoms: _238  and  _241
REMARK   93  A    between atoms: _241  and  _242
REMARK   94  A    between atoms: _247  and  _249
REMARK   95  A    between atoms: _249  and  _250
REMARK   96  A    between atoms: _249  and  _252
REMARK   97  A    between atoms: _252  and  _253
REMARK   98  A    between atoms: _258  and  _260
REMARK   99  A    between atoms: _260  and  _261
REMARK  100  A    between atoms: _260  and  _263
REMARK  101  A    between atoms: _263  and  _264
REMARK  102  A    between atoms: _270  and  _272
REMARK  103  A    between atoms: _272  and  _273
REMARK  104  A    between atoms: _275  and  _277
REMARK  105  A    between atoms: _277  and  _278
REMARK  106  A    between atoms: _277  and  _280
REMARK  107  A    between atoms: _280  and  _281
REMARK  108  A    between atoms: _281  and  _282
REMARK  109  A    between atoms: _285  and  _287
REMARK  110  A    between atoms: _287  and  _288
REMARK                            x       y       z     vdW  Elec       q    Type
REMARK                         _______ _______ _______ _____ _____    ______ ____
ROOT
ATOM      1  O   HOH     1      12.182   1.806  20.876  0.00  0.00    +0.000 OA
ENDROOT
TORSDOF 0
REMARK  Name = ../refined-set-2016/3n3g/3n3g_pocket.pdb
REMARK  110 active torsions:
REMARK  status: ('A' for Active; 'I' for Inactive)
REMARK    1  A    between atoms: _1  and  _3
REMARK    2  A    between atoms: _3  and  _4
REMARK    3  A    between atoms: _3  and  _6
REMARK    4  A    between atoms: _6  and  _7
REMARK    5  A    between atoms: _7  and  _8
REMARK    6  A    between atoms: _8  and  _9
REMARK    7  A    between atoms: _9  and  _10
REMARK    8  A    between atoms: _14  and  _16
REMARK    9  A    between atoms: _16  and  _17
REMARK   10  A    between atoms: _16  and  _19
REMARK   11  A    between atoms: _19  and  _20
REMARK   12  A    between atoms: _25  and  _26
REMARK   13  A    between atoms: _28  and  _30
REMARK   14  A    between atoms: _30  and  _31
REMARK   15  A    between atoms: _30  and  _33
REMARK   16  A    between atoms: _33  and  _34
REMARK   17  A    between atoms: _34  and  _35
REMARK   18  A    between atoms: _40  and  _42
REMARK   19  A    between atoms: _42  and  _43
REMARK   20  A    between atoms: _45  and  _47
REMARK   21  A    between atoms: _47  and  _48
REMARK   22  A    between atoms: _47  and  _50
REMARK   23  A    between atoms: _50  and  _51
REMARK   24  A    between atoms: _53  and  _55
REMARK   25  A    between atoms: _55  and  _56
REMARK   26  A    between atoms: _55  and  _58
REMARK   27  A    between atoms: _60  and  _62
REMARK   28  A    between atoms: _62  and  _63
REMARK   29  A    between atoms: _66  and  _68
REMARK   30  A    between atoms: _68  and  _69
REMARK   31  A    between atoms: _68  and  _71
REMARK   32  A    between atoms: _71  and  _72
REMARK   33  A    between atoms: _78  and  _80
REMARK   34  A    between atoms: _80  and  _81
REMARK   35  A    between atoms: _80  and  _83
REMARK   36  A    between atoms: _83  and  _84
REMARK   37  A    between atoms: _89  and  _90
REMARK   38  A    between atoms: _92  and  _94
REMARK   39  A    between atoms: _94  and  _95
REMARK   40  A    between atoms: _99  and  _100
REMARK   41  A    between atoms: _105  and  _107
REMARK   42  A    between atoms: _107  and  _108
REMARK   43  A    between atoms: _107  and  _110
REMARK   44  A    between atoms: _110  and  _111
REMARK   45  A    between atoms: _113  and  _115
REMARK   46  A    between atoms: _115  and  _116
REMARK   47  A    between atoms: _115  and  _118
REMARK   48  A    between atoms: _118  and  _119
REMARK   49  A    between atoms: _125  and  _127
REMARK   50  A    between atoms: _127  and  _128
REMARK   51  A    between atoms: _127  and  _130
REMARK   52  A    between atoms: _130  and  _131
REMARK   53  A    between atoms: _137  and  _139
REMARK   54  A    between atoms: _139  and  _140
REMARK   55  A    between atoms: _139  and  _142
REMARK   56  A    between atoms: _142  and  _143
REMARK   57  A    between atoms: _146  and  _148
REMARK   58  A    between atoms: _148  and  _149
REMARK   59  A    between atoms: _148  and  _151
REMARK   60  A    between atoms: _151  and  _152
REMARK   61  A    between atoms: _157  and  _158
REMARK   62  A    between atoms: _160  and  _162
REMARK   63  A    between atoms: _162  and  _163
REMARK   64  A    between atoms: _162  and  _165
REMARK   65  A    between atoms: _165  and  _166
REMARK   66  A    between atoms: _166  and  _167
REMARK   67  A    between atoms: _167  and  _168
REMARK   68  A    between atoms: _177  and  _179
REMARK   69  A    between atoms: _179  and  _180
REMARK   70  A    between atoms: _179  and  _182
REMARK   71  A    between atoms: _182  and  _183
REMARK   72  A    between atoms: _185  and  _187
REMARK   73  A    between atoms: _187  and  _188
REMARK   74  A    between atoms: _187  and  _190
REMARK   75  A    between atoms: _190  and  _191
REMARK   76  A    between atoms: _196  and  _198
REMARK   77  A    between atoms: _198  and  _199
REMARK   78  A    between atoms: _198  and  _201
REMARK   79  A    between atoms: _201  and  _202
REMARK   80  A    between atoms: _207  and  _209
REMARK   81  A    between atoms: _209  and  _210
REMARK   82  A    between atoms: _209  and  _212
REMARK   83  A    between atoms: _212  and  _213
REMARK   84  A    between atoms: _215  and  _217
REMARK   85  A    between atoms: _217  and  _218
REMARK   86  A    between atoms: _217  and  _220
REMARK   87  A    between atoms: _220  and  _221
REMARK   88  A    between atoms: _231  and  _233
REMARK   89  A    between atoms: _233  and  _234
REMARK   90  A    between atoms: _236  and  _238
REMARK   91  A    between atoms: _238  and  _239
REMARK   92  A    between atoms: _238  and  _241
REMARK   93  A    between atoms: _241  and  _242
REMARK   94  A    between atoms: _247  and  _249
REMARK   95  A    between atoms: _249  and  _250
REMARK   96  A    between atoms: _249  and  _252
REMARK   97  A    between atoms: _252  and  _253
REMARK   98  A    between atoms: _258  and  _260
REMARK   99  A    between atoms: _260  and  _261
REMARK  100  A    between atoms: _260  and  _263
REMARK  101  A    between atoms: _263  and  _264
REMARK  102  A    between atoms: _270  and  _272
REMARK  103  A    between atoms: _272  and  _273
REMARK  104  A    between atoms: _275  and  _277
REMARK  105  A    between atoms: _277  and  _278
REMARK  106  A    between atoms: _277  and  _280
REMARK  107  A    between atoms: _280  and  _281
REMARK  108  A    between atoms: _281  and  _282
REMARK  109  A    between atoms: _285  and  _287
REMARK  110  A    between atoms: _287  and  _288
REMARK                            x       y       z     vdW  Elec       q    Type
REMARK                         _______ _______ _______ _____ _____    ______ ____
ROOT
ATOM      1  O   HOH     1       4.590  -6.097   9.348  0.00  0.00    +0.000 OA
ENDROOT
TORSDOF 0
REMARK  Name = ../refined-set-2016/3n3g/3n3g_pocket.pdb
REMARK  110 active torsions:
REMARK  status: ('A' for Active; 'I' for Inactive)
REMARK    1  A    between atoms: _1  and  _3
REMARK    2  A    between atoms: _3  and  _4
REMARK    3  A    between atoms: _3  and  _6
REMARK    4  A    between atoms: _6  and  _7
REMARK    5  A    between atoms: _7  and  _8
REMARK    6  A    between atoms: _8  and  _9
REMARK    7  A    between atoms: _9  and  _10
REMARK    8  A    between atoms: _14  and  _16
REMARK    9  A    between atoms: _16  and  _17
REMARK   10  A    between atoms: _16  and  _19
REMARK   11  A    between atoms: _19  and  _20
REMARK   12  A    between atoms: _25  and  _26
REMARK   13  A    between atoms: _28  and  _30
REMARK   14  A    between atoms: _30  and  _31
REMARK   15  A    between atoms: _30  and  _33
REMARK   16  A    between atoms: _33  and  _34
REMARK   17  A    between atoms: _34  and  _35
REMARK   18  A    between atoms: _40  and  _42
REMARK   19  A    between atoms: _42  and  _43
REMARK   20  A    between atoms: _45  and  _47
REMARK   21  A    between atoms: _47  and  _48
REMARK   22  A    between atoms: _47  and  _50
REMARK   23  A    between atoms: _50  and  _51
REMARK   24  A    between atoms: _53  and  _55
REMARK   25  A    between atoms: _55  and  _56
REMARK   26  A    between atoms: _55  and  _58
REMARK   27  A    between atoms: _60  and  _62
REMARK   28  A    between atoms: _62  and  _63
REMARK   29  A    between atoms: _66  and  _68
REMARK   30  A    between atoms: _68  and  _69
REMARK   31  A    between atoms: _68  and  _71
REMARK   32  A    between atoms: _71  and  _72
REMARK   33  A    between atoms: _78  and  _80
REMARK   34  A    between atoms: _80  and  _81
REMARK   35  A    between atoms: _80  and  _83
REMARK   36  A    between atoms: _83  and  _84
REMARK   37  A    between atoms: _89  and  _90
REMARK   38  A    between atoms: _92  and  _94
REMARK   39  A    between atoms: _94  and  _95
REMARK   40  A    between atoms: _99  and  _100
REMARK   41  A    between atoms: _105  and  _107
REMARK   42  A    between atoms: _107  and  _108
REMARK   43  A    between atoms: _107  and  _110
REMARK   44  A    between atoms: _110  and  _111
REMARK   45  A    between atoms: _113  and  _115
REMARK   46  A    between atoms: _115  and  _116
REMARK   47  A    between atoms: _115  and  _118
REMARK   48  A    between atoms: _118  and  _119
REMARK   49  A    between atoms: _125  and  _127
REMARK   50  A    between atoms: _127  and  _128
REMARK   51  A    between atoms: _127  and  _130
REMARK   52  A    between atoms: _130  and  _131
REMARK   53  A    between atoms: _137  and  _139
REMARK   54  A    between atoms: _139  and  _140
REMARK   55  A    between atoms: _139  and  _142
REMARK   56  A    between atoms: _142  and  _143
REMARK   57  A    between atoms: _146  and  _148
REMARK   58  A    between atoms: _148  and  _149
REMARK   59  A    between atoms: _148  and  _151
REMARK   60  A    between atoms: _151  and  _152
REMARK   61  A    between atoms: _157  and  _158
REMARK   62  A    between atoms: _160  and  _162
REMARK   63  A    between atoms: _162  and  _163
REMARK   64  A    between atoms: _162  and  _165
REMARK   65  A    between atoms: _165  and  _166
REMARK   66  A    between atoms: _166  and  _167
REMARK   67  A    between atoms: _167  and  _168
REMARK   68  A    between atoms: _177  and  _179
REMARK   69  A    between atoms: _179  and  _180
REMARK   70  A    between atoms: _179  and  _182
REMARK   71  A    between atoms: _182  and  _183
REMARK   72  A    between atoms: _185  and  _187
REMARK   73  A    between atoms: _187  and  _188
REMARK   74  A    between atoms: _187  and  _190
REMARK   75  A    between atoms: _190  and  _191
REMARK   76  A    between atoms: _196  and  _198
REMARK   77  A    between atoms: _198  and  _199
REMARK   78  A    between atoms: _198  and  _201
REMARK   79  A    between atoms: _201  and  _202
REMARK   80  A    between atoms: _207  and  _209
REMARK   81  A    between atoms: _209  and  _210
REMARK   82  A    between atoms: _209  and  _212
REMARK   83  A    between atoms: _212  and  _213
REMARK   84  A    between atoms: _215  and  _217
REMARK   85  A    between atoms: _217  and  _218
REMARK   86  A    between atoms: _217  and  _220
REMARK   87  A    between atoms: _220  and  _221
REMARK   88  A    between atoms: _231  and  _233
REMARK   89  A    between atoms: _233  and  _234
REMARK   90  A    between atoms: _236  and  _238
REMARK   91  A    between atoms: _238  and  _239
REMARK   92  A    between atoms: _238  and  _241
REMARK   93  A    between atoms: _241  and  _242
REMARK   94  A    between atoms: _247  and  _249
REMARK   95  A    between atoms: _249  and  _250
REMARK   96  A    between atoms: _249  and  _252
REMARK   97  A    between atoms: _252  and  _253
REMARK   98  A    between atoms: _258  and  _260
REMARK   99  A    between atoms: _260  and  _261
REMARK  100  A    between atoms: _260  and  _263
REMARK  101  A    between atoms: _263  and  _264
REMARK  102  A    between atoms: _270  and  _272
REMARK  103  A    between atoms: _272  and  _273
REMARK  104  A    between atoms: _275  and  _277
REMARK  105  A    between atoms: _277  and  _278
REMARK  106  A    between atoms: _277  and  _280
REMARK  107  A    between atoms: _280  and  _281
REMARK  108  A    between atoms: _281  and  _282
REMARK  109  A    between atoms: _285  and  _287
REMARK  110  A    between atoms: _287  and  _288
REMARK                            x       y       z     vdW  Elec       q    Type
REMARK                         _______ _______ _______ _____ _____    ______ ____
ROOT
ATOM      1  O   HOH     1      17.021 -10.746  16.106  0.00  0.00    +0.000 OA
ENDROOT
TORSDOF 0
REMARK  Name = ../refined-set-2016/3n3g/3n3g_pocket.pdb
REMARK  110 active torsions:
REMARK  status: ('A' for Active; 'I' for Inactive)
REMARK    1  A    between atoms: _1  and  _3
REMARK    2  A    between atoms: _3  and  _4
REMARK    3  A    between atoms: _3  and  _6
REMARK    4  A    between atoms: _6  and  _7
REMARK    5  A    between atoms: _7  and  _8
REMARK    6  A    between atoms: _8  and  _9
REMARK    7  A    between atoms: _9  and  _10
REMARK    8  A    between atoms: _14  and  _16
REMARK    9  A    between atoms: _16  and  _17
REMARK   10  A    between atoms: _16  and  _19
REMARK   11  A    between atoms: _19  and  _20
REMARK   12  A    between atoms: _25  and  _26
REMARK   13  A    between atoms: _28  and  _30
REMARK   14  A    between atoms: _30  and  _31
REMARK   15  A    between atoms: _30  and  _33
REMARK   16  A    between atoms: _33  and  _34
REMARK   17  A    between atoms: _34  and  _35
REMARK   18  A    between atoms: _40  and  _42
REMARK   19  A    between atoms: _42  and  _43
REMARK   20  A    between atoms: _45  and  _47
REMARK   21  A    between atoms: _47  and  _48
REMARK   22  A    between atoms: _47  and  _50
REMARK   23  A    between atoms: _50  and  _51
REMARK   24  A    between atoms: _53  and  _55
REMARK   25  A    between atoms: _55  and  _56
REMARK   26  A    between atoms: _55  and  _58
REMARK   27  A    between atoms: _60  and  _62
REMARK   28  A    between atoms: _62  and  _63
REMARK   29  A    between atoms: _66  and  _68
REMARK   30  A    between atoms: _68  and  _69
REMARK   31  A    between atoms: _68  and  _71
REMARK   32  A    between atoms: _71  and  _72
REMARK   33  A    between atoms: _78  and  _80
REMARK   34  A    between atoms: _80  and  _81
REMARK   35  A    between atoms: _80  and  _83
REMARK   36  A    between atoms: _83  and  _84
REMARK   37  A    between atoms: _89  and  _90
REMARK   38  A    between atoms: _92  and  _94
REMARK   39  A    between atoms: _94  and  _95
REMARK   40  A    between atoms: _99  and  _100
REMARK   41  A    between atoms: _105  and  _107
REMARK   42  A    between atoms: _107  and  _108
REMARK   43  A    between atoms: _107  and  _110
REMARK   44  A    between atoms: _110  and  _111
REMARK   45  A    between atoms: _113  and  _115
REMARK   46  A    between atoms: _115  and  _116
REMARK   47  A    between atoms: _115  and  _118
REMARK   48  A    between atoms: _118  and  _119
REMARK   49  A    between atoms: _125  and  _127
REMARK   50  A    between atoms: _127  and  _128
REMARK   51  A    between atoms: _127  and  _130
REMARK   52  A    between atoms: _130  and  _131
REMARK   53  A    between atoms: _137  and  _139
REMARK   54  A    between atoms: _139  and  _140
REMARK   55  A    between atoms: _139  and  _142
REMARK   56  A    between atoms: _142  and  _143
REMARK   57  A    between atoms: _146  and  _148
REMARK   58  A    between atoms: _148  and  _149
REMARK   59  A    between atoms: _148  and  _151
REMARK   60  A    between atoms: _151  and  _152
REMARK   61  A    between atoms: _157  and  _158
REMARK   62  A    between atoms: _160  and  _162
REMARK   63  A    between atoms: _162  and  _163
REMARK   64  A    between atoms: _162  and  _165
REMARK   65  A    between atoms: _165  and  _166
REMARK   66  A    between atoms: _166  and  _167
REMARK   67  A    between atoms: _167  and  _168
REMARK   68  A    between atoms: _177  and  _179
REMARK   69  A    between atoms: _179  and  _180
REMARK   70  A    between atoms: _179  and  _182
REMARK   71  A    between atoms: _182  and  _183
REMARK   72  A    between atoms: _185  and  _187
REMARK   73  A    between atoms: _187  and  _188
REMARK   74  A    between atoms: _187  and  _190
REMARK   75  A    between atoms: _190  and  _191
REMARK   76  A    between atoms: _196  and  _198
REMARK   77  A    between atoms: _198  and  _199
REMARK   78  A    between atoms: _198  and  _201
REMARK   79  A    between atoms: _201  and  _202
REMARK   80  A    between atoms: _207  and  _209
REMARK   81  A    between atoms: _209  and  _210
REMARK   82  A    between atoms: _209  and  _212
REMARK   83  A    between atoms: _212  and  _213
REMARK   84  A    between atoms: _215  and  _217
REMARK   85  A    between atoms: _217  and  _218
REMARK   86  A    between atoms: _217  and  _220
REMARK   87  A    between atoms: _220  and  _221
REMARK   88  A    between atoms: _231  and  _233
REMARK   89  A    between atoms: _233  and  _234
REMARK   90  A    between atoms: _236  and  _238
REMARK   91  A    between atoms: _238  and  _239
REMARK   92  A    between atoms: _238  and  _241
REMARK   93  A    between atoms: _241  and  _242
REMARK   94  A    between atoms: _247  and  _249
REMARK   95  A    between atoms: _249  and  _250
REMARK   96  A    between atoms: _249  and  _252
REMARK   97  A    between atoms: _252  and  _253
REMARK   98  A    between atoms: _258  and  _260
REMARK   99  A    between atoms: _260  and  _261
REMARK  100  A    between atoms: _260  and  _263
REMARK  101  A    between atoms: _263  and  _264
REMARK  102  A    between atoms: _270  and  _272
REMARK  103  A    between atoms: _272  and  _273
REMARK  104  A    between atoms: _275  and  _277
REMARK  105  A    between atoms: _277  and  _278
REMARK  106  A    between atoms: _277  and  _280
REMARK  107  A    between atoms: _280  and  _281
REMARK  108  A    between atoms: _281  and  _282
REMARK  109  A    between atoms: _285  and  _287
REMARK  110  A    between atoms: _287  and  _288
REMARK                            x       y       z     vdW  Elec       q    Type
REMARK                         _______ _______ _______ _____ _____    ______ ____
ROOT
ATOM      1  O   HOH     1      17.682 -12.053  24.750  0.00  0.00    +0.000 OA
ENDROOT
TORSDOF 0
REMARK  Name = ../refined-set-2016/3n3g/3n3g_pocket.pdb
REMARK  110 active torsions:
REMARK  status: ('A' for Active; 'I' for Inactive)
REMARK    1  A    between atoms: _1  and  _3
REMARK    2  A    between atoms: _3  and  _4
REMARK    3  A    between atoms: _3  and  _6
REMARK    4  A    between atoms: _6  and  _7
REMARK    5  A    between atoms: _7  and  _8
REMARK    6  A    between atoms: _8  and  _9
REMARK    7  A    between atoms: _9  and  _10
REMARK    8  A    between atoms: _14  and  _16
REMARK    9  A    between atoms: _16  and  _17
REMARK   10  A    between atoms: _16  and  _19
REMARK   11  A    between atoms: _19  and  _20
REMARK   12  A    between atoms: _25  and  _26
REMARK   13  A    between atoms: _28  and  _30
REMARK   14  A    between atoms: _30  and  _31
REMARK   15  A    between atoms: _30  and  _33
REMARK   16  A    between atoms: _33  and  _34
REMARK   17  A    between atoms: _34  and  _35
REMARK   18  A    between atoms: _40  and  _42
REMARK   19  A    between atoms: _42  and  _43
REMARK   20  A    between atoms: _45  and  _47
REMARK   21  A    between atoms: _47  and  _48
REMARK   22  A    between atoms: _47  and  _50
REMARK   23  A    between atoms: _50  and  _51
REMARK   24  A    between atoms: _53  and  _55
REMARK   25  A    between atoms: _55  and  _56
REMARK   26  A    between atoms: _55  and  _58
REMARK   27  A    between atoms: _60  and  _62
REMARK   28  A    between atoms: _62  and  _63
REMARK   29  A    between atoms: _66  and  _68
REMARK   30  A    between atoms: _68  and  _69
REMARK   31  A    between atoms: _68  and  _71
REMARK   32  A    between atoms: _71  and  _72
REMARK   33  A    between atoms: _78  and  _80
REMARK   34  A    between atoms: _80  and  _81
REMARK   35  A    between atoms: _80  and  _83
REMARK   36  A    between atoms: _83  and  _84
REMARK   37  A    between atoms: _89  and  _90
REMARK   38  A    between atoms: _92  and  _94
REMARK   39  A    between atoms: _94  and  _95
REMARK   40  A    between atoms: _99  and  _100
REMARK   41  A    between atoms: _105  and  _107
REMARK   42  A    between atoms: _107  and  _108
REMARK   43  A    between atoms: _107  and  _110
REMARK   44  A    between atoms: _110  and  _111
REMARK   45  A    between atoms: _113  and  _115
REMARK   46  A    between atoms: _115  and  _116
REMARK   47  A    between atoms: _115  and  _118
REMARK   48  A    between atoms: _118  and  _119
REMARK   49  A    between atoms: _125  and  _127
REMARK   50  A    between atoms: _127  and  _128
REMARK   51  A    between atoms: _127  and  _130
REMARK   52  A    between atoms: _130  and  _131
REMARK   53  A    between atoms: _137  and  _139
REMARK   54  A    between atoms: _139  and  _140
REMARK   55  A    between atoms: _139  and  _142
REMARK   56  A    between atoms: _142  and  _143
REMARK   57  A    between atoms: _146  and  _148
REMARK   58  A    between atoms: _148  and  _149
REMARK   59  A    between atoms: _148  and  _151
REMARK   60  A    between atoms: _151  and  _152
REMARK   61  A    between atoms: _157  and  _158
REMARK   62  A    between atoms: _160  and  _162
REMARK   63  A    between atoms: _162  and  _163
REMARK   64  A    between atoms: _162  and  _165
REMARK   65  A    between atoms: _165  and  _166
REMARK   66  A    between atoms: _166  and  _167
REMARK   67  A    between atoms: _167  and  _168
REMARK   68  A    between atoms: _177  and  _179
REMARK   69  A    between atoms: _179  and  _180
REMARK   70  A    between atoms: _179  and  _182
REMARK   71  A    between atoms: _182  and  _183
REMARK   72  A    between atoms: _185  and  _187
REMARK   73  A    between atoms: _187  and  _188
REMARK   74  A    between atoms: _187  and  _190
REMARK   75  A    between atoms: _190  and  _191
REMARK   76  A    between atoms: _196  and  _198
REMARK   77  A    between atoms: _198  and  _199
REMARK   78  A    between atoms: _198  and  _201
REMARK   79  A    between atoms: _201  and  _202
REMARK   80  A    between atoms: _207  and  _209
REMARK   81  A    between atoms: _209  and  _210
REMARK   82  A    between atoms: _209  and  _212
REMARK   83  A    between atoms: _212  and  _213
REMARK   84  A    between atoms: _215  and  _217
REMARK   85  A    between atoms: _217  and  _218
REMARK   86  A    between atoms: _217  and  _220
REMARK   87  A    between atoms: _220  and  _221
REMARK   88  A    between atoms: _231  and  _233
REMARK   89  A    between atoms: _233  and  _234
REMARK   90  A    between atoms: _236  and  _238
REMARK   91  A    between atoms: _238  and  _239
REMARK   92  A    between atoms: _238  and  _241
REMARK   93  A    between atoms: _241  and  _242
REMARK   94  A    between atoms: _247  and  _249
REMARK   95  A    between atoms: _249  and  _250
REMARK   96  A    between atoms: _249  and  _252
REMARK   97  A    between atoms: _252  and  _253
REMARK   98  A    between atoms: _258  and  _260
REMARK   99  A    between atoms: _260  and  _261
REMARK  100  A    between atoms: _260  and  _263
REMARK  101  A    between atoms: _263  and  _264
REMARK  102  A    between atoms: _270  and  _272
REMARK  103  A    between atoms: _272  and  _273
REMARK  104  A    between atoms: _275  and  _277
REMARK  105  A    between atoms: _277  and  _278
REMARK  106  A    between atoms: _277  and  _280
REMARK  107  A    between atoms: _280  and  _281
REMARK  108  A    between atoms: _281  and  _282
REMARK  109  A    between atoms: _285  and  _287
REMARK  110  A    between atoms: _287  and  _288
REMARK                            x       y       z     vdW  Elec       q    Type
REMARK                         _______ _______ _______ _____ _____    ______ ____
ROOT
ATOM      1  O   HOH     1      19.010 -12.309  17.721  0.00  0.00    +0.000 OA
ENDROOT
TORSDOF 0
