REMARK  Name = ../refined-set-2016/2y9g/2y9g_pocket.pdb
REMARK  99 active torsions:
REMARK  status: ('A' for Active; 'I' for Inactive)
REMARK    1  A    between atoms: _1  and  _3
REMARK    2  A    between atoms: _3  and  _4
REMARK    3  A    between atoms: _3  and  _6
REMARK    4  A    between atoms: _6  and  _7
REMARK    5  A    between atoms: _10  and  _12
REMARK    6  A    between atoms: _12  and  _13
REMARK    7  A    between atoms: _12  and  _15
REMARK    8  A    between atoms: _15  and  _16
REMARK    9  A    between atoms: _16  and  _17
REMARK   10  A    between atoms: _17  and  _18
REMARK   11  A    between atoms: _18  and  _19
REMARK   12  A    between atoms: _23  and  _25
REMARK   13  A    between atoms: _25  and  _26
REMARK   14  A    between atoms: _25  and  _28
REMARK   15  A    between atoms: _31  and  _33
REMARK   16  A    between atoms: _33  and  _34
REMARK   17  A    between atoms: _33  and  _36
REMARK   18  A    between atoms: _36  and  _37
REMARK   19  A    between atoms: _40  and  _42
REMARK   20  A    between atoms: _42  and  _43
REMARK   21  A    between atoms: _42  and  _45
REMARK   22  A    between atoms: _45  and  _46
REMARK   23  A    between atoms: _52  and  _54
REMARK   24  A    between atoms: _54  and  _55
REMARK   25  A    between atoms: _54  and  _57
REMARK   26  A    between atoms: _57  and  _58
REMARK   27  A    between atoms: _60  and  _62
REMARK   28  A    between atoms: _62  and  _63
REMARK   29  A    between atoms: _62  and  _65
REMARK   30  A    between atoms: _65  and  _66
REMARK   31  A    between atoms: _66  and  _67
REMARK   32  A    between atoms: _67  and  _68
REMARK   33  A    between atoms: _77  and  _79
REMARK   34  A    between atoms: _79  and  _80
REMARK   35  A    between atoms: _79  and  _82
REMARK   36  A    between atoms: _82  and  _83
REMARK   37  A    between atoms: _83  and  _84
REMARK   38  A    between atoms: _84  and  _85
REMARK   39  A    between atoms: _94  and  _96
REMARK   40  A    between atoms: _96  and  _97
REMARK   41  A    between atoms: _100  and  _102
REMARK   42  A    between atoms: _102  and  _103
REMARK   43  A    between atoms: _102  and  _105
REMARK   44  A    between atoms: _105  and  _106
REMARK   45  A    between atoms: _106  and  _107
REMARK   46  A    between atoms: _111  and  _112
REMARK   47  A    between atoms: _117  and  _119
REMARK   48  A    between atoms: _119  and  _120
REMARK   49  A    between atoms: _119  and  _122
REMARK   50  A    between atoms: _122  and  _123
REMARK   51  A    between atoms: _128  and  _129
REMARK   52  A    between atoms: _131  and  _133
REMARK   53  A    between atoms: _133  and  _134
REMARK   54  A    between atoms: _133  and  _136
REMARK   55  A    between atoms: _139  and  _141
REMARK   56  A    between atoms: _141  and  _142
REMARK   57  A    between atoms: _144  and  _146
REMARK   58  A    between atoms: _146  and  _147
REMARK   59  A    between atoms: _146  and  _149
REMARK   60  A    between atoms: _149  and  _150
REMARK   61  A    between atoms: _150  and  _151
REMARK   62  A    between atoms: _156  and  _158
REMARK   63  A    between atoms: _158  and  _159
REMARK   64  A    between atoms: _158  and  _161
REMARK   65  A    between atoms: _161  and  _162
REMARK   66  A    between atoms: _165  and  _167
REMARK   67  A    between atoms: _167  and  _168
REMARK   68  A    between atoms: _167  and  _170
REMARK   69  A    between atoms: _170  and  _171
REMARK   70  A    between atoms: _174  and  _176
REMARK   71  A    between atoms: _176  and  _177
REMARK   72  A    between atoms: _179  and  _181
REMARK   73  A    between atoms: _181  and  _182
REMARK   74  A    between atoms: _181  and  _184
REMARK   75  A    between atoms: _184  and  _185
REMARK   76  A    between atoms: _185  and  _186
REMARK   77  A    between atoms: _186  and  _187
REMARK   78  A    between atoms: _196  and  _198
REMARK   79  A    between atoms: _198  and  _199
REMARK   80  A    between atoms: _198  and  _201
REMARK   81  A    between atoms: _201  and  _202
REMARK   82  A    between atoms: _207  and  _208
REMARK   83  A    between atoms: _211  and  _212
REMARK   84  A    between atoms: _217  and  _219
REMARK   85  A    between atoms: _219  and  _220
REMARK   86  A    between atoms: _219  and  _222
REMARK   87  A    between atoms: _222  and  _223
REMARK   88  A    between atoms: _226  and  _228
REMARK   89  A    between atoms: _228  and  _229
REMARK   90  A    between atoms: _228  and  _231
REMARK   91  A    between atoms: _231  and  _232
REMARK   92  A    between atoms: _237  and  _239
REMARK   93  A    between atoms: _239  and  _240
REMARK   94  A    between atoms: _239  and  _242
REMARK   95  A    between atoms: _242  and  _243
REMARK   96  A    between atoms: _253  and  _255
REMARK   97  A    between atoms: _255  and  _256
REMARK   98  A    between atoms: _255  and  _258
REMARK   99  A    between atoms: _258  and  _259
REMARK                            x       y       z     vdW  Elec       q    Type
REMARK                         _______ _______ _______ _____ _____    ______ ____
ROOT
ATOM      1  CA  ASP A   1       7.257   7.406  10.730  0.00  0.00    +0.144 C 
ENDROOT
BRANCH   1   2
ATOM      2  N   ASP A   1       6.227   8.367  11.136  0.00  0.00    -0.239 NA
ATOM      3  H   ASP A   1       5.331   8.437  10.613  0.00  0.00    +0.142 HD
ENDBRANCH   1   2
BRANCH   1   4
ATOM      4  C   ASP A   1       8.257   7.998   9.756  0.00  0.00    +0.225 C 
ATOM      5  O   ASP A   1       9.228   7.353   9.401  0.00  0.00    -0.287 OA
ENDBRANCH   1   4
BRANCH   1   6
ATOM      6  CB  ASP A   1       6.686   6.030  10.324  0.00  0.00    +0.139 C 
BRANCH   6   7
ATOM      7  CG  ASP A   1       5.919   6.042   8.982  0.00  0.00    +0.367 C 
ATOM      8  OD2 ASP A   1       4.834   5.444   8.893  0.00  0.00    -0.246 OA
ATOM      9  OD1 ASP A   1       6.360   6.593   8.034  0.00  0.00    -0.246 OA
ENDBRANCH   6   7
ENDBRANCH   1   6
TORSDOF 4
REMARK  Name = ../refined-set-2016/2y9g/2y9g_pocket.pdb
REMARK  99 active torsions:
REMARK  status: ('A' for Active; 'I' for Inactive)
REMARK    1  A    between atoms: _1  and  _3
REMARK    2  A    between atoms: _3  and  _4
REMARK    3  A    between atoms: _3  and  _6
REMARK    4  A    between atoms: _6  and  _7
REMARK    5  A    between atoms: _10  and  _12
REMARK    6  A    between atoms: _12  and  _13
REMARK    7  A    between atoms: _12  and  _15
REMARK    8  A    between atoms: _15  and  _16
REMARK    9  A    between atoms: _16  and  _17
REMARK   10  A    between atoms: _17  and  _18
REMARK   11  A    between atoms: _18  and  _19
REMARK   12  A    between atoms: _23  and  _25
REMARK   13  A    between atoms: _25  and  _26
REMARK   14  A    between atoms: _25  and  _28
REMARK   15  A    between atoms: _31  and  _33
REMARK   16  A    between atoms: _33  and  _34
REMARK   17  A    between atoms: _33  and  _36
REMARK   18  A    between atoms: _36  and  _37
REMARK   19  A    between atoms: _40  and  _42
REMARK   20  A    between atoms: _42  and  _43
REMARK   21  A    between atoms: _42  and  _45
REMARK   22  A    between atoms: _45  and  _46
REMARK   23  A    between atoms: _52  and  _54
REMARK   24  A    between atoms: _54  and  _55
REMARK   25  A    between atoms: _54  and  _57
REMARK   26  A    between atoms: _57  and  _58
REMARK   27  A    between atoms: _60  and  _62
REMARK   28  A    between atoms: _62  and  _63
REMARK   29  A    between atoms: _62  and  _65
REMARK   30  A    between atoms: _65  and  _66
REMARK   31  A    between atoms: _66  and  _67
REMARK   32  A    between atoms: _67  and  _68
REMARK   33  A    between atoms: _77  and  _79
REMARK   34  A    between atoms: _79  and  _80
REMARK   35  A    between atoms: _79  and  _82
REMARK   36  A    between atoms: _82  and  _83
REMARK   37  A    between atoms: _83  and  _84
REMARK   38  A    between atoms: _84  and  _85
REMARK   39  A    between atoms: _94  and  _96
REMARK   40  A    between atoms: _96  and  _97
REMARK   41  A    between atoms: _100  and  _102
REMARK   42  A    between atoms: _102  and  _103
REMARK   43  A    between atoms: _102  and  _105
REMARK   44  A    between atoms: _105  and  _106
REMARK   45  A    between atoms: _106  and  _107
REMARK   46  A    between atoms: _111  and  _112
REMARK   47  A    between atoms: _117  and  _119
REMARK   48  A    between atoms: _119  and  _120
REMARK   49  A    between atoms: _119  and  _122
REMARK   50  A    between atoms: _122  and  _123
REMARK   51  A    between atoms: _128  and  _129
REMARK   52  A    between atoms: _131  and  _133
REMARK   53  A    between atoms: _133  and  _134
REMARK   54  A    between atoms: _133  and  _136
REMARK   55  A    between atoms: _139  and  _141
REMARK   56  A    between atoms: _141  and  _142
REMARK   57  A    between atoms: _144  and  _146
REMARK   58  A    between atoms: _146  and  _147
REMARK   59  A    between atoms: _146  and  _149
REMARK   60  A    between atoms: _149  and  _150
REMARK   61  A    between atoms: _150  and  _151
REMARK   62  A    between atoms: _156  and  _158
REMARK   63  A    between atoms: _158  and  _159
REMARK   64  A    between atoms: _158  and  _161
REMARK   65  A    between atoms: _161  and  _162
REMARK   66  A    between atoms: _165  and  _167
REMARK   67  A    between atoms: _167  and  _168
REMARK   68  A    between atoms: _167  and  _170
REMARK   69  A    between atoms: _170  and  _171
REMARK   70  A    between atoms: _174  and  _176
REMARK   71  A    between atoms: _176  and  _177
REMARK   72  A    between atoms: _179  and  _181
REMARK   73  A    between atoms: _181  and  _182
REMARK   74  A    between atoms: _181  and  _184
REMARK   75  A    between atoms: _184  and  _185
REMARK   76  A    between atoms: _185  and  _186
REMARK   77  A    between atoms: _186  and  _187
REMARK   78  A    between atoms: _196  and  _198
REMARK   79  A    between atoms: _198  and  _199
REMARK   80  A    between atoms: _198  and  _201
REMARK   81  A    between atoms: _201  and  _202
REMARK   82  A    between atoms: _207  and  _208
REMARK   83  A    between atoms: _211  and  _212
REMARK   84  A    between atoms: _217  and  _219
REMARK   85  A    between atoms: _219  and  _220
REMARK   86  A    between atoms: _219  and  _222
REMARK   87  A    between atoms: _222  and  _223
REMARK   88  A    between atoms: _226  and  _228
REMARK   89  A    between atoms: _228  and  _229
REMARK   90  A    between atoms: _228  and  _231
REMARK   91  A    between atoms: _231  and  _232
REMARK   92  A    between atoms: _237  and  _239
REMARK   93  A    between atoms: _239  and  _240
REMARK   94  A    between atoms: _239  and  _242
REMARK   95  A    between atoms: _242  and  _243
REMARK   96  A    between atoms: _253  and  _255
REMARK   97  A    between atoms: _255  and  _256
REMARK   98  A    between atoms: _255  and  _258
REMARK   99  A    between atoms: _258  and  _259
REMARK                            x       y       z     vdW  Elec       q    Type
REMARK                         _______ _______ _______ _____ _____    ______ ____
ROOT
ATOM      1  C   PHE A   4       6.895  10.339  -1.469  0.00  0.00    +0.241 C 
ATOM      2  O   PHE A   4       7.031  10.878  -0.321  0.00  0.00    -0.273 OA
ATOM      3  N   SER A   5       6.545  11.009  -2.566  0.00  0.00    -0.295 N 
ATOM      4  H   SER A   5       6.502  10.495  -3.469  0.00  0.00    +0.150 HD
ENDROOT
BRANCH   3   5
ATOM      5  CA  SER A   5       6.214  12.453  -2.558  0.00  0.00    +0.178 C 
BRANCH   5   6
ATOM      6  C   SER A   5       5.058  12.498  -3.491  0.00  0.00    +0.243 C 
ATOM      7  N   ARG A   6       3.935  13.022  -3.016  0.00  0.00    -0.297 N 
ATOM      8  H   ARG A   6       3.901  13.394  -2.045  0.00  0.00    +0.150 HD
ATOM      9  O   SER A   5       5.153  12.109  -4.658  0.00  0.00    -0.273 OA
BRANCH   7  10
ATOM     10  CA  ARG A   6       2.736  13.074  -3.872  0.00  0.00    +0.149 C 
BRANCH  10  11
ATOM     11  C   ARG A   6       1.786  14.226  -3.585  0.00  0.00    +0.241 C 
ATOM     12  O   ARG A   6       1.811  14.823  -2.493  0.00  0.00    -0.273 OA
ATOM     13  N   ARG A   7       0.954  14.556  -4.573  0.00  0.00    -0.298 N 
ATOM     14  H   ARG A   7       1.196  14.248  -5.536  0.00  0.00    +0.150 HD
BRANCH  13  15
ATOM     15  CA  ARG A   7      -0.266  15.317  -4.391  0.00  0.00    +0.137 C 
BRANCH  15  16
ATOM     16  C   ARG A   7      -1.228  14.780  -5.462  0.00  0.00    +0.227 C 
ATOM     17  O   ARG A   7      -0.796  14.337  -6.507  0.00  0.00    -0.286 OA
ENDBRANCH  15  16
BRANCH  15  18
ATOM     18  CB  ARG A   7      -0.044  16.830  -4.630  0.00  0.00    +0.031 C 
BRANCH  18  19
ATOM     19  CG  ARG A   7       0.843  17.474  -3.588  0.00  0.00    +0.045 C 
BRANCH  19  20
ATOM     20  CD  ARG A   7       0.850  18.998  -3.640  0.00  0.00    +0.174 C 
BRANCH  20  21
ATOM     21  NE  ARG A   7       1.783  19.458  -2.607  0.00  0.00    -0.265 N 
ATOM     22  CZ  ARG A   7       1.675  20.656  -2.008  0.00  0.00    +0.342 C 
ATOM     23  NH2 ARG A   7       2.492  20.949  -1.049  0.00  0.00    -0.292 N 
ATOM     24 HH21 ARG A   7       2.425  21.871  -0.572  0.00  0.00    +0.255 HD
ATOM     25 HH22 ARG A   7       3.216  20.263  -0.755  0.00  0.00    +0.255 HD
ATOM     26  NH1 ARG A   7       0.716  21.499  -2.404  0.00  0.00    -0.292 N 
ATOM     27 HH11 ARG A   7       0.621  22.429  -1.949  0.00  0.00    +0.255 HD
ATOM     28 HH12 ARG A   7       0.065  21.224  -3.167  0.00  0.00    +0.255 HD
ATOM     29  HE  ARG A   7       2.562  18.830  -2.325  0.00  0.00    +0.259 HD
ENDBRANCH  20  21
ENDBRANCH  19  20
ENDBRANCH  18  19
ENDBRANCH  15  18
ENDBRANCH  13  15
ENDBRANCH  10  11
BRANCH  10  30
ATOM     30  CB  ARG A   6       1.892  11.774  -3.775  0.00  0.00    +0.033 C 
BRANCH  30  31
ATOM     31  CG  ARG A   6       1.249  11.644  -2.371  0.00  0.00    +0.045 C 
BRANCH  31  32
ATOM     32  CD  ARG A   6       0.727  10.194  -2.162  0.00  0.00    +0.174 C 
BRANCH  32  33
ATOM     33  NE  ARG A   6       0.211  10.141  -0.802  0.00  0.00    -0.265 N 
ATOM     34  CZ  ARG A   6       0.048   9.031  -0.071  0.00  0.00    +0.342 C 
ATOM     35  NH2 ARG A   6      -0.395   9.151   1.173  0.00  0.00    -0.292 N 
ATOM     36 HH21 ARG A   6      -0.530   8.304   1.761  0.00  0.00    +0.255 HD
ATOM     37 HH22 ARG A   6      -0.608  10.092   1.561  0.00  0.00    +0.255 HD
ATOM     38  NH1 ARG A   6       0.216   7.789  -0.603  0.00  0.00    -0.292 N 
ATOM     39 HH11 ARG A   6       0.082   6.946  -0.009  0.00  0.00    +0.255 HD
ATOM     40 HH12 ARG A   6       0.478   7.683  -1.604  0.00  0.00    +0.255 HD
ATOM     41  HE  ARG A   6      -0.054  11.044  -0.359  0.00  0.00    +0.259 HD
ENDBRANCH  32  33
ENDBRANCH  31  32
ENDBRANCH  30  31
ENDBRANCH  10  30
ENDBRANCH   7  10
ENDBRANCH   5   6
BRANCH   5  42
ATOM     42  CB  SER A   5       7.401  13.349  -3.031  0.00  0.00    +0.166 C 
BRANCH  42  43
ATOM     43  OG  SER A   5       6.924  14.669  -3.103  0.00  0.00    -0.380 OA
ATOM     44  H   SER A   5       6.175  14.713  -3.749  0.00  0.00    +0.211 HD
ENDBRANCH  42  43
ENDBRANCH   5  42
ENDBRANCH   3   5
BRANCH   1  45
ATOM     45  CA  PHE A   4       7.124   8.849  -1.692  0.00  0.00    +0.153 C 
BRANCH  45  47
ATOM     46  C   LEU A   3       9.061   7.588  -0.958  0.00  0.00    +0.241 C 
ATOM     47  N   PHE A   4       8.014   8.317  -0.644  0.00  0.00    -0.297 N 
ATOM     48  H   PHE A   4       7.811   8.521   0.355  0.00  0.00    +0.150 HD
ATOM     49  O   LEU A   3       9.207   7.040  -2.101  0.00  0.00    -0.273 OA
BRANCH  46  50
ATOM     50  CA  LEU A   3      10.068   7.368   0.178  0.00  0.00    +0.149 C 
BRANCH  50  53
ATOM     51  C   VAL A   2      10.136   4.941   0.103  0.00  0.00    +0.241 C 
ATOM     52  O   VAL A   2       8.960   4.819   0.475  0.00  0.00    -0.273 OA
ATOM     53  N   LEU A   3      10.751   6.094  -0.031  0.00  0.00    -0.297 N 
ATOM     54  H   LEU A   3      11.757   6.100  -0.295  0.00  0.00    +0.150 HD
BRANCH  51  55
ATOM     55  CA  VAL A   2      10.984   3.677  -0.217  0.00  0.00    +0.148 C 
BRANCH  55  58
ATOM     56  C   LYS A   1      11.224   2.064   1.643  0.00  0.00    +0.238 C 
ATOM     57  O   LYS A   1      12.344   2.535   1.953  0.00  0.00    -0.274 OA
ATOM     58  N   VAL A   2      10.480   2.569   0.646  0.00  0.00    -0.297 N 
ATOM     59  H   VAL A   2       9.532   2.179   0.471  0.00  0.00    +0.150 HD
BRANCH  56  60
ATOM     60  CA  LYS A   1      10.614   0.998   2.510  0.00  0.00    +0.145 C 
BRANCH  60  61
ATOM     61  N   LYS A   1      11.626   0.349   3.354  0.00  0.00    -0.238 NA
ATOM     62  H   LYS A   1      11.727   0.620   4.353  0.00  0.00    +0.142 HD
ENDBRANCH  60  61
BRANCH  60  63
ATOM     63  CB  LYS A   1       9.458   1.572   3.363  0.00  0.00    +0.026 C 
BRANCH  63  64
ATOM     64  CG  LYS A   1       8.691   0.484   4.160  0.00  0.00    -0.000 C 
BRANCH  64  65
ATOM     65  CD  LYS A   1       7.663   1.183   5.088  0.00  0.00    -0.024 C 
BRANCH  65  66
ATOM     66  CE  LYS A   1       6.886   0.125   5.840  0.00  0.00    -0.086 C 
BRANCH  66  67
ATOM     67  NZ  LYS A   1       5.806   0.785   6.684  0.00  0.00    +0.380 N 
ATOM     68  HZ1 LYS A   1       6.248   1.437   7.363  0.00  0.00    -0.089 HD
ATOM     69  HZ2 LYS A   1       5.275   0.054   7.199  0.00  0.00    -0.089 HD
ATOM     70  HZ3 LYS A   1       5.159   1.314   6.065  0.00  0.00    -0.089 HD
ENDBRANCH  66  67
ENDBRANCH  65  66
ENDBRANCH  64  65
ENDBRANCH  63  64
ENDBRANCH  60  63
ENDBRANCH  56  60
ENDBRANCH  55  58
BRANCH  55  71
ATOM     71  CB  VAL A   2      10.984   3.339  -1.711  0.00  0.00    +0.027 C 
ATOM     72  CG2 VAL A   2      11.989   2.244  -2.024  0.00  0.00    +0.002 C 
ATOM     73  CG1 VAL A   2       9.550   2.986  -2.258  0.00  0.00    +0.002 C 
ENDBRANCH  55  71
ENDBRANCH  51  55
ENDBRANCH  50  53
BRANCH  50  74
ATOM     74  CB  LEU A   3      11.048   8.526   0.154  0.00  0.00    +0.029 C 
BRANCH  74  75
ATOM     75  CG  LEU A   3      11.990   8.533   1.384  0.00  0.00    +0.002 C 
ATOM     76  CD2 LEU A   3      11.286   8.422   2.819  0.00  0.00    +0.000 C 
ATOM     77  CD1 LEU A   3      12.795   9.750   1.287  0.00  0.00    +0.000 C 
ENDBRANCH  74  75
ENDBRANCH  50  74
ENDBRANCH  46  50
ENDBRANCH  45  47
BRANCH  45  78
ATOM     78  CB  PHE A   4       5.764   8.142  -1.744  0.00  0.00    +0.055 C 
BRANCH  78  79
ATOM     79  CG  PHE A   4       4.866   8.370  -0.540  0.00  0.00    -0.020 A 
ATOM     80  CD2 PHE A   4       4.770   7.356   0.412  0.00  0.00    -0.004 A 
ATOM     81  CE2 PHE A   4       3.877   7.485   1.549  0.00  0.00    -0.000 A 
ATOM     82  CZ  PHE A   4       3.041   8.721   1.686  0.00  0.00    -0.000 A 
ATOM     83  CE1 PHE A   4       3.137   9.706   0.679  0.00  0.00    -0.000 A 
ATOM     84  CD1 PHE A   4       4.075   9.532  -0.419  0.00  0.00    -0.004 A 
ENDBRANCH  78  79
ENDBRANCH  45  78
ENDBRANCH   1  45
TORSDOF 34
REMARK  Name = ../refined-set-2016/2y9g/2y9g_pocket.pdb
REMARK  99 active torsions:
REMARK  status: ('A' for Active; 'I' for Inactive)
REMARK    1  A    between atoms: _1  and  _3
REMARK    2  A    between atoms: _3  and  _4
REMARK    3  A    between atoms: _3  and  _6
REMARK    4  A    between atoms: _6  and  _7
REMARK    5  A    between atoms: _10  and  _12
REMARK    6  A    between atoms: _12  and  _13
REMARK    7  A    between atoms: _12  and  _15
REMARK    8  A    between atoms: _15  and  _16
REMARK    9  A    between atoms: _16  and  _17
REMARK   10  A    between atoms: _17  and  _18
REMARK   11  A    between atoms: _18  and  _19
REMARK   12  A    between atoms: _23  and  _25
REMARK   13  A    between atoms: _25  and  _26
REMARK   14  A    between atoms: _25  and  _28
REMARK   15  A    between atoms: _31  and  _33
REMARK   16  A    between atoms: _33  and  _34
REMARK   17  A    between atoms: _33  and  _36
REMARK   18  A    between atoms: _36  and  _37
REMARK   19  A    between atoms: _40  and  _42
REMARK   20  A    between atoms: _42  and  _43
REMARK   21  A    between atoms: _42  and  _45
REMARK   22  A    between atoms: _45  and  _46
REMARK   23  A    between atoms: _52  and  _54
REMARK   24  A    between atoms: _54  and  _55
REMARK   25  A    between atoms: _54  and  _57
REMARK   26  A    between atoms: _57  and  _58
REMARK   27  A    between atoms: _60  and  _62
REMARK   28  A    between atoms: _62  and  _63
REMARK   29  A    between atoms: _62  and  _65
REMARK   30  A    between atoms: _65  and  _66
REMARK   31  A    between atoms: _66  and  _67
REMARK   32  A    between atoms: _67  and  _68
REMARK   33  A    between atoms: _77  and  _79
REMARK   34  A    between atoms: _79  and  _80
REMARK   35  A    between atoms: _79  and  _82
REMARK   36  A    between atoms: _82  and  _83
REMARK   37  A    between atoms: _83  and  _84
REMARK   38  A    between atoms: _84  and  _85
REMARK   39  A    between atoms: _94  and  _96
REMARK   40  A    between atoms: _96  and  _97
REMARK   41  A    between atoms: _100  and  _102
REMARK   42  A    between atoms: _102  and  _103
REMARK   43  A    between atoms: _102  and  _105
REMARK   44  A    between atoms: _105  and  _106
REMARK   45  A    between atoms: _106  and  _107
REMARK   46  A    between atoms: _111  and  _112
REMARK   47  A    between atoms: _117  and  _119
REMARK   48  A    between atoms: _119  and  _120
REMARK   49  A    between atoms: _119  and  _122
REMARK   50  A    between atoms: _122  and  _123
REMARK   51  A    between atoms: _128  and  _129
REMARK   52  A    between atoms: _131  and  _133
REMARK   53  A    between atoms: _133  and  _134
REMARK   54  A    between atoms: _133  and  _136
REMARK   55  A    between atoms: _139  and  _141
REMARK   56  A    between atoms: _141  and  _142
REMARK   57  A    between atoms: _144  and  _146
REMARK   58  A    between atoms: _146  and  _147
REMARK   59  A    between atoms: _146  and  _149
REMARK   60  A    between atoms: _149  and  _150
REMARK   61  A    between atoms: _150  and  _151
REMARK   62  A    between atoms: _156  and  _158
REMARK   63  A    between atoms: _158  and  _159
REMARK   64  A    between atoms: _158  and  _161
REMARK   65  A    between atoms: _161  and  _162
REMARK   66  A    between atoms: _165  and  _167
REMARK   67  A    between atoms: _167  and  _168
REMARK   68  A    between atoms: _167  and  _170
REMARK   69  A    between atoms: _170  and  _171
REMARK   70  A    between atoms: _174  and  _176
REMARK   71  A    between atoms: _176  and  _177
REMARK   72  A    between atoms: _179  and  _181
REMARK   73  A    between atoms: _181  and  _182
REMARK   74  A    between atoms: _181  and  _184
REMARK   75  A    between atoms: _184  and  _185
REMARK   76  A    between atoms: _185  and  _186
REMARK   77  A    between atoms: _186  and  _187
REMARK   78  A    between atoms: _196  and  _198
REMARK   79  A    between atoms: _198  and  _199
REMARK   80  A    between atoms: _198  and  _201
REMARK   81  A    between atoms: _201  and  _202
REMARK   82  A    between atoms: _207  and  _208
REMARK   83  A    between atoms: _211  and  _212
REMARK   84  A    between atoms: _217  and  _219
REMARK   85  A    between atoms: _219  and  _220
REMARK   86  A    between atoms: _219  and  _222
REMARK   87  A    between atoms: _222  and  _223
REMARK   88  A    between atoms: _226  and  _228
REMARK   89  A    between atoms: _228  and  _229
REMARK   90  A    between atoms: _228  and  _231
REMARK   91  A    between atoms: _231  and  _232
REMARK   92  A    between atoms: _237  and  _239
REMARK   93  A    between atoms: _239  and  _240
REMARK   94  A    between atoms: _239  and  _242
REMARK   95  A    between atoms: _242  and  _243
REMARK   96  A    between atoms: _253  and  _255
REMARK   97  A    between atoms: _255  and  _256
REMARK   98  A    between atoms: _255  and  _258
REMARK   99  A    between atoms: _258  and  _259
REMARK                            x       y       z     vdW  Elec       q    Type
REMARK                         _______ _______ _______ _____ _____    ______ ____
ROOT
ATOM      1  CA  VAL A   5       5.228  12.475   1.969  0.00  0.00    +0.149 C 
ENDROOT
BRANCH   1   3
ATOM      2  C   TYR A   4       3.372  13.506   0.810  0.00  0.00    +0.241 C 
ATOM      3  N   VAL A   5       3.988  13.234   1.972  0.00  0.00    -0.297 N 
ATOM      4  H   VAL A   5       3.580  13.565   2.870  0.00  0.00    +0.150 HD
ATOM      5  O   TYR A   4       3.922  13.279  -0.289  0.00  0.00    -0.273 OA
BRANCH   2   6
ATOM      6  CA  TYR A   4       2.060  14.247   0.903  0.00  0.00    +0.153 C 
BRANCH   6   8
ATOM      7  C   PRO A   3       0.673  12.957   2.415  0.00  0.00    +0.241 C 
ATOM      8  N   TYR A   4       1.364  14.070   2.173  0.00  0.00    -0.297 N 
ATOM      9  H   TYR A   4       1.408  14.818   2.894  0.00  0.00    +0.150 HD
ATOM     10  O   PRO A   3       0.791  11.971   1.674  0.00  0.00    -0.273 OA
BRANCH   7  16
ATOM     11  C   GLU A   2      -2.360  11.966   2.765  0.00  0.00    +0.244 C 
ATOM     12  N   PRO A   3      -1.299  11.908   3.595  0.00  0.00    -0.272 N 
ATOM     13  CD  PRO A   3      -1.062  10.839   4.582  0.00  0.00    +0.094 C 
ATOM     14  CG  PRO A   3       0.287  11.129   5.097  0.00  0.00    +0.024 C 
ATOM     15  CB  PRO A   3       0.542  12.594   4.883  0.00  0.00    +0.031 C 
ATOM     16  CA  PRO A   3      -0.283  12.931   3.631  0.00  0.00    +0.152 C 
ATOM     17  O   GLU A   2      -3.285  11.157   2.773  0.00  0.00    -0.273 OA
BRANCH  11  18
ATOM     18  CA  GLU A   2      -2.511  13.272   1.889  0.00  0.00    +0.149 C 
BRANCH  18  20
ATOM     19  C   ALA A   1      -2.548  12.757  -0.490  0.00  0.00    +0.238 C 
ATOM     20  N   GLU A   2      -3.210  12.905   0.656  0.00  0.00    -0.297 N 
ATOM     21  H   GLU A   2      -4.239  12.758   0.675  0.00  0.00    +0.150 HD
ATOM     22  O   ALA A   1      -1.409  12.852  -0.539  0.00  0.00    -0.274 OA
BRANCH  19  23
ATOM     23  CA  ALA A   1      -3.427  12.388  -1.739  0.00  0.00    +0.145 C 
ATOM     24  CB  ALA A   1      -3.264  10.913  -2.108  0.00  0.00    +0.028 C 
BRANCH  23  25
ATOM     25  N   ALA A   1      -3.040  13.261  -2.848  0.00  0.00    -0.238 NA
ATOM     26  H   ALA A   1      -2.485  12.897  -3.649  0.00  0.00    +0.142 HD
ENDBRANCH  23  25
ENDBRANCH  19  23
ENDBRANCH  18  20
BRANCH  18  27
ATOM     27  CB  GLU A   2      -3.550  14.172   2.609  0.00  0.00    +0.041 C 
BRANCH  27  28
ATOM     28  CG  GLU A   2      -3.315  15.659   2.326  0.00  0.00    +0.116 C 
BRANCH  28  29
ATOM     29  CD  GLU A   2      -4.157  16.516   3.196  0.00  0.00    +0.365 C 
ATOM     30  OE2 GLU A   2      -3.601  16.993   4.231  0.00  0.00    -0.246 OA
ATOM     31  OE1 GLU A   2      -5.341  16.690   2.818  0.00  0.00    -0.246 OA
ENDBRANCH  28  29
ENDBRANCH  27  28
ENDBRANCH  18  27
ENDBRANCH  11  18
ENDBRANCH   7  16
ENDBRANCH   6   8
BRANCH   6  32
ATOM     32  CB  TYR A   4       2.315  15.728   0.679  0.00  0.00    +0.055 C 
BRANCH  32  33
ATOM     33  CG  TYR A   4       1.105  16.537   0.327  0.00  0.00    -0.020 A 
ATOM     34  CD2 TYR A   4       1.153  17.936   0.464  0.00  0.00    -0.001 A 
ATOM     35  CE2 TYR A   4       0.003  18.706   0.214  0.00  0.00    +0.036 A 
ATOM     36  CZ  TYR A   4      -1.196  18.114  -0.211  0.00  0.00    +0.134 A 
ATOM     37  CE1 TYR A   4      -1.300  16.709  -0.328  0.00  0.00    +0.036 A 
ATOM     38  CD1 TYR A   4      -0.138  15.938  -0.040  0.00  0.00    -0.001 A 
BRANCH  36  39
ATOM     39  OH  TYR A   4      -2.280  18.931  -0.416  0.00  0.00    -0.506 OA
ATOM     40  HH  TYR A   4      -3.052  18.386  -0.711  0.00  0.00    +0.292 HD
ENDBRANCH  36  39
ENDBRANCH  32  33
ENDBRANCH   6  32
ENDBRANCH   2   6
ENDBRANCH   1   3
BRANCH   1  41
ATOM     41  C   VAL A   5       5.139  11.338   3.008  0.00  0.00    +0.241 C 
ATOM     42  O   VAL A   5       4.377  11.400   3.976  0.00  0.00    -0.273 OA
ATOM     43  N   GLY A   6       5.919  10.303   2.727  0.00  0.00    -0.295 N 
ATOM     44  H   GLY A   6       6.503  10.294   1.867  0.00  0.00    +0.150 HD
BRANCH  43  45
ATOM     45  CA  GLY A   6       5.937   9.157   3.672  0.00  0.00    +0.176 C 
BRANCH  45  46
ATOM     46  C   GLY A   6       6.806   8.103   3.048  0.00  0.00    +0.243 C 
ATOM     47  N   GLN A   7       6.582   6.876   3.482  0.00  0.00    -0.297 N 
ATOM     48  H   GLN A   7       5.839   6.727   4.194  0.00  0.00    +0.150 HD
ATOM     49  O   GLY A   6       7.687   8.405   2.275  0.00  0.00    -0.273 OA
BRANCH  47  50
ATOM     50  CA  GLN A   7       7.353   5.692   2.992  0.00  0.00    +0.149 C 
BRANCH  50  51
ATOM     51  C   GLN A   7       6.382   4.539   2.766  0.00  0.00    +0.241 C 
ATOM     52  O   GLN A   7       5.304   4.431   3.465  0.00  0.00    -0.273 OA
ATOM     53  N   ILE A   8       6.751   3.571   1.909  0.00  0.00    -0.297 N 
ATOM     54  H   ILE A   8       7.680   3.644   1.447  0.00  0.00    +0.150 HD
BRANCH  53  55
ATOM     55  CA  ILE A   8       5.945   2.475   1.612  0.00  0.00    +0.149 C 
BRANCH  55  56
ATOM     56  C   ILE A   8       6.778   1.274   1.104  0.00  0.00    +0.241 C 
ATOM     57  N   ASP A   9       6.263   0.079   1.374  0.00  0.00    -0.298 N 
ATOM     58  H   ASP A   9       5.421   0.001   1.980  0.00  0.00    +0.150 HD
ATOM     59  O   ILE A   8       7.837   1.481   0.467  0.00  0.00    -0.273 OA
BRANCH  57  60
ATOM     60  CA  ASP A   9       6.883  -1.135   0.816  0.00  0.00    +0.148 C 
BRANCH  60  61
ATOM     61  C   ASP A   9       6.931  -1.175  -0.716  0.00  0.00    +0.227 C 
ATOM     62  O   ASP A   9       6.153  -0.482  -1.430  0.00  0.00    -0.286 OA
ENDBRANCH  60  61
BRANCH  60  63
ATOM     63  CB  ASP A   9       6.174  -2.356   1.367  0.00  0.00    +0.142 C 
BRANCH  63  64
ATOM     64  CG  ASP A   9       6.597  -2.646   2.801  0.00  0.00    +0.367 C 
ATOM     65  OD2 ASP A   9       5.733  -2.891   3.617  0.00  0.00    -0.246 OA
ATOM     66  OD1 ASP A   9       7.820  -2.639   3.082  0.00  0.00    -0.246 OA
ENDBRANCH  63  64
ENDBRANCH  60  63
ENDBRANCH  57  60
ENDBRANCH  55  56
BRANCH  55  67
ATOM     67  CB  ILE A   8       4.856   2.841   0.516  0.00  0.00    +0.027 C 
ATOM     68  CG2 ILE A   8       5.502   3.059  -0.891  0.00  0.00    +0.002 C 
BRANCH  67  69
ATOM     69  CG1 ILE A   8       3.802   1.729   0.436  0.00  0.00    +0.002 C 
ATOM     70  CD1 ILE A   8       2.562   2.200  -0.361  0.00  0.00    +0.000 C 
ENDBRANCH  67  69
ENDBRANCH  55  67
ENDBRANCH  53  55
ENDBRANCH  50  51
BRANCH  50  71
ATOM     71  CB  GLN A   7       8.475   5.359   4.024  0.00  0.00    +0.039 C 
BRANCH  71  72
ATOM     72  CG  GLN A   7       7.909   5.008   5.383  0.00  0.00    +0.087 C 
BRANCH  72  73
ATOM     73  CD  GLN A   7       8.993   4.560   6.382  0.00  0.00    +0.219 C 
ATOM     74  OE1 GLN A   7       8.884   4.846   7.612  0.00  0.00    -0.275 OA
ATOM     75  NE2 GLN A   7       9.941   3.786   5.916  0.00  0.00    -0.329 N 
ATOM     76 HE21 GLN A   7      10.645   3.378   6.564  0.00  0.00    +0.145 HD
ATOM     77 HE22 GLN A   7       9.990   3.579   4.898  0.00  0.00    +0.145 HD
ENDBRANCH  72  73
ENDBRANCH  71  72
ENDBRANCH  50  71
ENDBRANCH  47  50
ENDBRANCH  45  46
ENDBRANCH  43  45
ENDBRANCH   1  41
BRANCH   1  78
ATOM     78  CB  VAL A   5       6.498  13.344   2.252  0.00  0.00    +0.027 C 
ATOM     79  CG2 VAL A   5       6.438  13.972   3.634  0.00  0.00    +0.002 C 
ATOM     80  CG1 VAL A   5       6.615  14.416   1.180  0.00  0.00    +0.002 C 
ENDBRANCH   1  78
TORSDOF 31
REMARK  Name = ../refined-set-2016/2y9g/2y9g_pocket.pdb
REMARK  99 active torsions:
REMARK  status: ('A' for Active; 'I' for Inactive)
REMARK    1  A    between atoms: _1  and  _3
REMARK    2  A    between atoms: _3  and  _4
REMARK    3  A    between atoms: _3  and  _6
REMARK    4  A    between atoms: _6  and  _7
REMARK    5  A    between atoms: _10  and  _12
REMARK    6  A    between atoms: _12  and  _13
REMARK    7  A    between atoms: _12  and  _15
REMARK    8  A    between atoms: _15  and  _16
REMARK    9  A    between atoms: _16  and  _17
REMARK   10  A    between atoms: _17  and  _18
REMARK   11  A    between atoms: _18  and  _19
REMARK   12  A    between atoms: _23  and  _25
REMARK   13  A    between atoms: _25  and  _26
REMARK   14  A    between atoms: _25  and  _28
REMARK   15  A    between atoms: _31  and  _33
REMARK   16  A    between atoms: _33  and  _34
REMARK   17  A    between atoms: _33  and  _36
REMARK   18  A    between atoms: _36  and  _37
REMARK   19  A    between atoms: _40  and  _42
REMARK   20  A    between atoms: _42  and  _43
REMARK   21  A    between atoms: _42  and  _45
REMARK   22  A    between atoms: _45  and  _46
REMARK   23  A    between atoms: _52  and  _54
REMARK   24  A    between atoms: _54  and  _55
REMARK   25  A    between atoms: _54  and  _57
REMARK   26  A    between atoms: _57  and  _58
REMARK   27  A    between atoms: _60  and  _62
REMARK   28  A    between atoms: _62  and  _63
REMARK   29  A    between atoms: _62  and  _65
REMARK   30  A    between atoms: _65  and  _66
REMARK   31  A    between atoms: _66  and  _67
REMARK   32  A    between atoms: _67  and  _68
REMARK   33  A    between atoms: _77  and  _79
REMARK   34  A    between atoms: _79  and  _80
REMARK   35  A    between atoms: _79  and  _82
REMARK   36  A    between atoms: _82  and  _83
REMARK   37  A    between atoms: _83  and  _84
REMARK   38  A    between atoms: _84  and  _85
REMARK   39  A    between atoms: _94  and  _96
REMARK   40  A    between atoms: _96  and  _97
REMARK   41  A    between atoms: _100  and  _102
REMARK   42  A    between atoms: _102  and  _103
REMARK   43  A    between atoms: _102  and  _105
REMARK   44  A    between atoms: _105  and  _106
REMARK   45  A    between atoms: _106  and  _107
REMARK   46  A    between atoms: _111  and  _112
REMARK   47  A    between atoms: _117  and  _119
REMARK   48  A    between atoms: _119  and  _120
REMARK   49  A    between atoms: _119  and  _122
REMARK   50  A    between atoms: _122  and  _123
REMARK   51  A    between atoms: _128  and  _129
REMARK   52  A    between atoms: _131  and  _133
REMARK   53  A    between atoms: _133  and  _134
REMARK   54  A    between atoms: _133  and  _136
REMARK   55  A    between atoms: _139  and  _141
REMARK   56  A    between atoms: _141  and  _142
REMARK   57  A    between atoms: _144  and  _146
REMARK   58  A    between atoms: _146  and  _147
REMARK   59  A    between atoms: _146  and  _149
REMARK   60  A    between atoms: _149  and  _150
REMARK   61  A    between atoms: _150  and  _151
REMARK   62  A    between atoms: _156  and  _158
REMARK   63  A    between atoms: _158  and  _159
REMARK   64  A    between atoms: _158  and  _161
REMARK   65  A    between atoms: _161  and  _162
REMARK   66  A    between atoms: _165  and  _167
REMARK   67  A    between atoms: _167  and  _168
REMARK   68  A    between atoms: _167  and  _170
REMARK   69  A    between atoms: _170  and  _171
REMARK   70  A    between atoms: _174  and  _176
REMARK   71  A    between atoms: _176  and  _177
REMARK   72  A    between atoms: _179  and  _181
REMARK   73  A    between atoms: _181  and  _182
REMARK   74  A    between atoms: _181  and  _184
REMARK   75  A    between atoms: _184  and  _185
REMARK   76  A    between atoms: _185  and  _186
REMARK   77  A    between atoms: _186  and  _187
REMARK   78  A    between atoms: _196  and  _198
REMARK   79  A    between atoms: _198  and  _199
REMARK   80  A    between atoms: _198  and  _201
REMARK   81  A    between atoms: _201  and  _202
REMARK   82  A    between atoms: _207  and  _208
REMARK   83  A    between atoms: _211  and  _212
REMARK   84  A    between atoms: _217  and  _219
REMARK   85  A    between atoms: _219  and  _220
REMARK   86  A    between atoms: _219  and  _222
REMARK   87  A    between atoms: _222  and  _223
REMARK   88  A    between atoms: _226  and  _228
REMARK   89  A    between atoms: _228  and  _229
REMARK   90  A    between atoms: _228  and  _231
REMARK   91  A    between atoms: _231  and  _232
REMARK   92  A    between atoms: _237  and  _239
REMARK   93  A    between atoms: _239  and  _240
REMARK   94  A    between atoms: _239  and  _242
REMARK   95  A    between atoms: _242  and  _243
REMARK   96  A    between atoms: _253  and  _255
REMARK   97  A    between atoms: _255  and  _256
REMARK   98  A    between atoms: _255  and  _258
REMARK   99  A    between atoms: _258  and  _259
REMARK                            x       y       z     vdW  Elec       q    Type
REMARK                         _______ _______ _______ _____ _____    ______ ____
ROOT
ATOM      1  C   TYR A   3       5.059   4.445  -8.077  0.00  0.00    +0.244 C 
ATOM      2  O   TYR A   3       6.218   4.739  -7.779  0.00  0.00    -0.273 OA
ATOM      3  N   PRO A   4       4.360   5.166  -8.964  0.00  0.00    -0.272 N 
ATOM      4  CD  PRO A   4       3.025   4.859  -9.452  0.00  0.00    +0.094 C 
ATOM      5  CG  PRO A   4       2.714   6.086 -10.285  0.00  0.00    +0.024 C 
ATOM      6  CB  PRO A   4       3.903   6.833 -10.630  0.00  0.00    +0.031 C 
ATOM      7  CA  PRO A   4       5.018   6.239  -9.738  0.00  0.00    +0.152 C 
ENDROOT
BRANCH   7   8
ATOM      8  C   PRO A   4       5.573   7.334  -8.874  0.00  0.00    +0.241 C 
ATOM      9  N   ASP A   5       4.958   7.566  -7.711  0.00  0.00    -0.297 N 
ATOM     10  H   ASP A   5       4.132   6.990  -7.451  0.00  0.00    +0.150 HD
ATOM     11  O   PRO A   4       6.635   7.896  -9.174  0.00  0.00    -0.273 OA
BRANCH   9  12
ATOM     12  CA  ASP A   5       5.418   8.615  -6.789  0.00  0.00    +0.160 C 
BRANCH  12  13
ATOM     13  C   ASP A   5       6.576   8.218  -5.842  0.00  0.00    +0.241 C 
ATOM     14  O   ASP A   5       6.845   8.964  -4.915  0.00  0.00    -0.273 OA
ATOM     15  N   ASN A   6       7.230   7.089  -6.149  0.00  0.00    -0.297 N 
ATOM     16  H   ASN A   6       6.860   6.501  -6.923  0.00  0.00    +0.150 HD
BRANCH  15  17
ATOM     17  CA  ASN A   6       8.444   6.637  -5.449  0.00  0.00    +0.158 C 
BRANCH  17  18
ATOM     18  C   ASN A   6       9.693   7.051  -6.242  0.00  0.00    +0.241 C 
ATOM     19  O   ASN A   6      10.816   6.807  -5.745  0.00  0.00    -0.273 OA
ATOM     20  N   TRP A   7       9.520   7.777  -7.313  0.00  0.00    -0.298 N 
ATOM     21  H   TRP A   7       8.593   8.218  -7.480  0.00  0.00    +0.150 HD
BRANCH  20  22
ATOM     22  CA  TRP A   7      10.629   7.995  -8.317  0.00  0.00    +0.141 C 
BRANCH  22  23
ATOM     23  C   TRP A   7      10.963   9.477  -8.377  0.00  0.00    +0.227 C 
ATOM     24  O   TRP A   7      10.107  10.312  -8.746  0.00  0.00    -0.286 OA
ENDBRANCH  22  23
BRANCH  22  25
ATOM     25  CB  TRP A   7      10.299   7.369  -9.661  0.00  0.00    +0.056 C 
BRANCH  25  26
ATOM     26  CG  TRP A   7      10.189   5.866  -9.506  0.00  0.00    -0.002 A 
ATOM     27  CD2 TRP A   7      11.292   4.929  -9.390  0.00  0.00    +0.013 A 
ATOM     28  CE2 TRP A   7      10.729   3.632  -9.209  0.00  0.00    +0.056 A 
ATOM     29  CZ2 TRP A   7      11.514   2.487  -9.075  0.00  0.00    +0.017 A 
ATOM     30  CH2 TRP A   7      12.897   2.664  -9.073  0.00  0.00    +0.001 A 
ATOM     31  CZ3 TRP A   7      13.482   3.942  -9.261  0.00  0.00    +0.000 A 
ATOM     32  NE1 TRP A   7       9.353   3.773  -9.202  0.00  0.00    -0.352 N 
ATOM     33  HE1 TRP A   7       8.666   3.004  -9.065  0.00  0.00    +0.166 HD
ATOM     34  CE3 TRP A   7      12.702   5.067  -9.466  0.00  0.00    +0.001 A 
ATOM     35  CD1 TRP A   7       9.037   5.120  -9.410  0.00  0.00    +0.068 A 
ENDBRANCH  25  26
ENDBRANCH  22  25
ENDBRANCH  20  22
ENDBRANCH  17  18
BRANCH  17  36
ATOM     36  CB  ASN A   6       8.461   5.118  -5.279  0.00  0.00    +0.114 C 
BRANCH  36  37
ATOM     37  CG  ASN A   6       7.299   4.596  -4.474  0.00  0.00    +0.222 C 
ATOM     38  OD1 ASN A   6       6.805   5.341  -3.547  0.00  0.00    -0.275 OA
ATOM     39  ND2 ASN A   6       6.856   3.417  -4.746  0.00  0.00    -0.329 N 
ATOM     40 HD21 ASN A   6       6.060   3.023  -4.205  0.00  0.00    +0.145 HD
ATOM     41 HD22 ASN A   6       7.294   2.859  -5.507  0.00  0.00    +0.145 HD
ENDBRANCH  36  37
ENDBRANCH  17  36
ENDBRANCH  15  17
ENDBRANCH  12  13
BRANCH  12  42
ATOM     42  CB  ASP A   5       4.252   9.258  -6.004  0.00  0.00    +0.143 C 
BRANCH  42  43
ATOM     43  CG  ASP A   5       3.471   8.236  -5.125  0.00  0.00    +0.367 C 
ATOM     44  OD2 ASP A   5       2.302   8.512  -4.787  0.00  0.00    -0.246 OA
ATOM     45  OD1 ASP A   5       3.990   7.120  -4.923  0.00  0.00    -0.246 OA
ENDBRANCH  42  43
ENDBRANCH  12  42
ENDBRANCH   9  12
ENDBRANCH   7   8
BRANCH   1  46
ATOM     46  CA  TYR A   3       4.324   3.320  -7.339  0.00  0.00    +0.153 C 
BRANCH  46  48
ATOM     47  C   ARG A   2       5.183   1.053  -7.603  0.00  0.00    +0.241 C 
ATOM     48  N   TYR A   3       5.245   2.226  -6.979  0.00  0.00    -0.297 N 
ATOM     49  H   TYR A   3       5.951   2.373  -6.229  0.00  0.00    +0.150 HD
ATOM     50  O   ARG A   2       4.344   0.819  -8.503  0.00  0.00    -0.273 OA
BRANCH  47  51
ATOM     51  CA  ARG A   2       6.136  -0.068  -7.161  0.00  0.00    +0.149 C 
BRANCH  51  53
ATOM     52  C   GLY A   1       8.241   1.113  -7.066  0.00  0.00    +0.240 C 
ATOM     53  N   ARG A   2       7.255   0.466  -6.431  0.00  0.00    -0.297 N 
ATOM     54  H   ARG A   2       7.299   0.348  -5.399  0.00  0.00    +0.150 HD
ATOM     55  O   GLY A   1       8.253   1.302  -8.287  0.00  0.00    -0.274 OA
BRANCH  52  56
ATOM     56  CA  GLY A   1       9.347   1.606  -6.175  0.00  0.00    +0.169 C 
BRANCH  56  57
ATOM     57  N   GLY A   1       9.676   0.663  -5.133  0.00  0.00    -0.236 NA
ATOM     58  H   GLY A   1       9.107   0.653  -4.263  0.00  0.00    +0.142 HD
ENDBRANCH  56  57
ENDBRANCH  52  56
ENDBRANCH  51  53
BRANCH  51  59
ATOM     59  CB  ARG A   2       5.399  -1.116  -6.271  0.00  0.00    +0.033 C 
BRANCH  59  60
ATOM     60  CG  ARG A   2       3.960  -1.422  -6.657  0.00  0.00    +0.045 C 
BRANCH  60  61
ATOM     61  CD  ARG A   2       3.512  -2.337  -5.554  0.00  0.00    +0.174 C 
BRANCH  61  62
ATOM     62  NE  ARG A   2       2.108  -2.474  -5.693  0.00  0.00    -0.265 N 
ATOM     63  CZ  ARG A   2       1.380  -3.337  -5.031  0.00  0.00    +0.342 C 
ATOM     64  NH2 ARG A   2       1.942  -4.193  -4.147  0.00  0.00    -0.292 N 
ATOM     65 HH21 ARG A   2       1.347  -4.872  -3.630  0.00  0.00    +0.255 HD
ATOM     66 HH22 ARG A   2       2.969  -4.172  -3.984  0.00  0.00    +0.255 HD
ATOM     67  NH1 ARG A   2       0.075  -3.334  -5.290  0.00  0.00    -0.292 N 
ATOM     68 HH11 ARG A   2      -0.555  -3.997  -4.795  0.00  0.00    +0.255 HD
ATOM     69 HH12 ARG A   2      -0.315  -2.668  -5.987  0.00  0.00    +0.255 HD
ATOM     70  HE  ARG A   2       1.624  -1.847  -6.366  0.00  0.00    +0.259 HD
ENDBRANCH  61  62
ENDBRANCH  60  61
ENDBRANCH  59  60
ENDBRANCH  51  59
ENDBRANCH  47  51
ENDBRANCH  46  48
BRANCH  46  71
ATOM     71  CB  TYR A   3       3.608   3.838  -6.035  0.00  0.00    +0.055 C 
BRANCH  71  72
ATOM     72  CG  TYR A   3       3.086   2.692  -5.190  0.00  0.00    -0.020 A 
ATOM     73  CD2 TYR A   3       3.894   2.164  -4.133  0.00  0.00    -0.001 A 
ATOM     74  CE2 TYR A   3       3.427   1.084  -3.359  0.00  0.00    +0.036 A 
ATOM     75  CZ  TYR A   3       2.152   0.601  -3.599  0.00  0.00    +0.134 A 
ATOM     76  CE1 TYR A   3       1.330   1.127  -4.629  0.00  0.00    +0.036 A 
ATOM     77  CD1 TYR A   3       1.840   2.186  -5.412  0.00  0.00    -0.001 A 
BRANCH  75  78
ATOM     78  OH  TYR A   3       1.595  -0.476  -2.872  0.00  0.00    -0.506 OA
ATOM     79  HH  TYR A   3       0.680  -0.658  -3.203  0.00  0.00    +0.292 HD
ENDBRANCH  75  78
ENDBRANCH  71  72
ENDBRANCH  46  71
ENDBRANCH   1  46
TORSDOF 26
REMARK  Name = ../refined-set-2016/2y9g/2y9g_pocket.pdb
REMARK  99 active torsions:
REMARK  status: ('A' for Active; 'I' for Inactive)
REMARK    1  A    between atoms: _1  and  _3
REMARK    2  A    between atoms: _3  and  _4
REMARK    3  A    between atoms: _3  and  _6
REMARK    4  A    between atoms: _6  and  _7
REMARK    5  A    between atoms: _10  and  _12
REMARK    6  A    between atoms: _12  and  _13
REMARK    7  A    between atoms: _12  and  _15
REMARK    8  A    between atoms: _15  and  _16
REMARK    9  A    between atoms: _16  and  _17
REMARK   10  A    between atoms: _17  and  _18
REMARK   11  A    between atoms: _18  and  _19
REMARK   12  A    between atoms: _23  and  _25
REMARK   13  A    between atoms: _25  and  _26
REMARK   14  A    between atoms: _25  and  _28
REMARK   15  A    between atoms: _31  and  _33
REMARK   16  A    between atoms: _33  and  _34
REMARK   17  A    between atoms: _33  and  _36
REMARK   18  A    between atoms: _36  and  _37
REMARK   19  A    between atoms: _40  and  _42
REMARK   20  A    between atoms: _42  and  _43
REMARK   21  A    between atoms: _42  and  _45
REMARK   22  A    between atoms: _45  and  _46
REMARK   23  A    between atoms: _52  and  _54
REMARK   24  A    between atoms: _54  and  _55
REMARK   25  A    between atoms: _54  and  _57
REMARK   26  A    between atoms: _57  and  _58
REMARK   27  A    between atoms: _60  and  _62
REMARK   28  A    between atoms: _62  and  _63
REMARK   29  A    between atoms: _62  and  _65
REMARK   30  A    between atoms: _65  and  _66
REMARK   31  A    between atoms: _66  and  _67
REMARK   32  A    between atoms: _67  and  _68
REMARK   33  A    between atoms: _77  and  _79
REMARK   34  A    between atoms: _79  and  _80
REMARK   35  A    between atoms: _79  and  _82
REMARK   36  A    between atoms: _82  and  _83
REMARK   37  A    between atoms: _83  and  _84
REMARK   38  A    between atoms: _84  and  _85
REMARK   39  A    between atoms: _94  and  _96
REMARK   40  A    between atoms: _96  and  _97
REMARK   41  A    between atoms: _100  and  _102
REMARK   42  A    between atoms: _102  and  _103
REMARK   43  A    between atoms: _102  and  _105
REMARK   44  A    between atoms: _105  and  _106
REMARK   45  A    between atoms: _106  and  _107
REMARK   46  A    between atoms: _111  and  _112
REMARK   47  A    between atoms: _117  and  _119
REMARK   48  A    between atoms: _119  and  _120
REMARK   49  A    between atoms: _119  and  _122
REMARK   50  A    between atoms: _122  and  _123
REMARK   51  A    between atoms: _128  and  _129
REMARK   52  A    between atoms: _131  and  _133
REMARK   53  A    between atoms: _133  and  _134
REMARK   54  A    between atoms: _133  and  _136
REMARK   55  A    between atoms: _139  and  _141
REMARK   56  A    between atoms: _141  and  _142
REMARK   57  A    between atoms: _144  and  _146
REMARK   58  A    between atoms: _146  and  _147
REMARK   59  A    between atoms: _146  and  _149
REMARK   60  A    between atoms: _149  and  _150
REMARK   61  A    between atoms: _150  and  _151
REMARK   62  A    between atoms: _156  and  _158
REMARK   63  A    between atoms: _158  and  _159
REMARK   64  A    between atoms: _158  and  _161
REMARK   65  A    between atoms: _161  and  _162
REMARK   66  A    between atoms: _165  and  _167
REMARK   67  A    between atoms: _167  and  _168
REMARK   68  A    between atoms: _167  and  _170
REMARK   69  A    between atoms: _170  and  _171
REMARK   70  A    between atoms: _174  and  _176
REMARK   71  A    between atoms: _176  and  _177
REMARK   72  A    between atoms: _179  and  _181
REMARK   73  A    between atoms: _181  and  _182
REMARK   74  A    between atoms: _181  and  _184
REMARK   75  A    between atoms: _184  and  _185
REMARK   76  A    between atoms: _185  and  _186
REMARK   77  A    between atoms: _186  and  _187
REMARK   78  A    between atoms: _196  and  _198
REMARK   79  A    between atoms: _198  and  _199
REMARK   80  A    between atoms: _198  and  _201
REMARK   81  A    between atoms: _201  and  _202
REMARK   82  A    between atoms: _207  and  _208
REMARK   83  A    between atoms: _211  and  _212
REMARK   84  A    between atoms: _217  and  _219
REMARK   85  A    between atoms: _219  and  _220
REMARK   86  A    between atoms: _219  and  _222
REMARK   87  A    between atoms: _222  and  _223
REMARK   88  A    between atoms: _226  and  _228
REMARK   89  A    between atoms: _228  and  _229
REMARK   90  A    between atoms: _228  and  _231
REMARK   91  A    between atoms: _231  and  _232
REMARK   92  A    between atoms: _237  and  _239
REMARK   93  A    between atoms: _239  and  _240
REMARK   94  A    between atoms: _239  and  _242
REMARK   95  A    between atoms: _242  and  _243
REMARK   96  A    between atoms: _253  and  _255
REMARK   97  A    between atoms: _255  and  _256
REMARK   98  A    between atoms: _255  and  _258
REMARK   99  A    between atoms: _258  and  _259
REMARK                            x       y       z     vdW  Elec       q    Type
REMARK                         _______ _______ _______ _____ _____    ______ ____
ROOT
ATOM      1  CA  THR A   1       3.078  14.429  -9.296  0.00  0.00    +0.160 C 
ENDROOT
BRANCH   1   2
ATOM      2  N   THR A   1       4.005  13.595 -10.158  0.00  0.00    -0.237 NA
ATOM      3  H   THR A   1       4.856  13.163  -9.744  0.00  0.00    +0.142 HD
ENDBRANCH   1   2
BRANCH   1   4
ATOM      4  CB  THR A   1       2.956  13.938  -7.812  0.00  0.00    +0.134 C 
ATOM      5  CG2 THR A   1       2.460  12.421  -7.773  0.00  0.00    +0.034 C 
BRANCH   4   6
ATOM      6  OG1 THR A   1       4.219  14.011  -7.134  0.00  0.00    -0.383 OA
ATOM      7  HG1 THR A   1       4.877  13.439  -7.603  0.00  0.00    +0.210 HD
ENDBRANCH   4   6
ENDBRANCH   1   4
BRANCH   1   8
ATOM      8  C   THR A   1       3.491  15.902  -9.284  0.00  0.00    +0.227 C 
ATOM      9  O   THR A   1       2.746  16.790  -8.782  0.00  0.00    -0.287 OA
ENDBRANCH   1   8
TORSDOF 4
REMARK  Name = ../refined-set-2016/2y9g/2y9g_pocket.pdb
REMARK  99 active torsions:
REMARK  status: ('A' for Active; 'I' for Inactive)
REMARK    1  A    between atoms: _1  and  _3
REMARK    2  A    between atoms: _3  and  _4
REMARK    3  A    between atoms: _3  and  _6
REMARK    4  A    between atoms: _6  and  _7
REMARK    5  A    between atoms: _10  and  _12
REMARK    6  A    between atoms: _12  and  _13
REMARK    7  A    between atoms: _12  and  _15
REMARK    8  A    between atoms: _15  and  _16
REMARK    9  A    between atoms: _16  and  _17
REMARK   10  A    between atoms: _17  and  _18
REMARK   11  A    between atoms: _18  and  _19
REMARK   12  A    between atoms: _23  and  _25
REMARK   13  A    between atoms: _25  and  _26
REMARK   14  A    between atoms: _25  and  _28
REMARK   15  A    between atoms: _31  and  _33
REMARK   16  A    between atoms: _33  and  _34
REMARK   17  A    between atoms: _33  and  _36
REMARK   18  A    between atoms: _36  and  _37
REMARK   19  A    between atoms: _40  and  _42
REMARK   20  A    between atoms: _42  and  _43
REMARK   21  A    between atoms: _42  and  _45
REMARK   22  A    between atoms: _45  and  _46
REMARK   23  A    between atoms: _52  and  _54
REMARK   24  A    between atoms: _54  and  _55
REMARK   25  A    between atoms: _54  and  _57
REMARK   26  A    between atoms: _57  and  _58
REMARK   27  A    between atoms: _60  and  _62
REMARK   28  A    between atoms: _62  and  _63
REMARK   29  A    between atoms: _62  and  _65
REMARK   30  A    between atoms: _65  and  _66
REMARK   31  A    between atoms: _66  and  _67
REMARK   32  A    between atoms: _67  and  _68
REMARK   33  A    between atoms: _77  and  _79
REMARK   34  A    between atoms: _79  and  _80
REMARK   35  A    between atoms: _79  and  _82
REMARK   36  A    between atoms: _82  and  _83
REMARK   37  A    between atoms: _83  and  _84
REMARK   38  A    between atoms: _84  and  _85
REMARK   39  A    between atoms: _94  and  _96
REMARK   40  A    between atoms: _96  and  _97
REMARK   41  A    between atoms: _100  and  _102
REMARK   42  A    between atoms: _102  and  _103
REMARK   43  A    between atoms: _102  and  _105
REMARK   44  A    between atoms: _105  and  _106
REMARK   45  A    between atoms: _106  and  _107
REMARK   46  A    between atoms: _111  and  _112
REMARK   47  A    between atoms: _117  and  _119
REMARK   48  A    between atoms: _119  and  _120
REMARK   49  A    between atoms: _119  and  _122
REMARK   50  A    between atoms: _122  and  _123
REMARK   51  A    between atoms: _128  and  _129
REMARK   52  A    between atoms: _131  and  _133
REMARK   53  A    between atoms: _133  and  _134
REMARK   54  A    between atoms: _133  and  _136
REMARK   55  A    between atoms: _139  and  _141
REMARK   56  A    between atoms: _141  and  _142
REMARK   57  A    between atoms: _144  and  _146
REMARK   58  A    between atoms: _146  and  _147
REMARK   59  A    between atoms: _146  and  _149
REMARK   60  A    between atoms: _149  and  _150
REMARK   61  A    between atoms: _150  and  _151
REMARK   62  A    between atoms: _156  and  _158
REMARK   63  A    between atoms: _158  and  _159
REMARK   64  A    between atoms: _158  and  _161
REMARK   65  A    between atoms: _161  and  _162
REMARK   66  A    between atoms: _165  and  _167
REMARK   67  A    between atoms: _167  and  _168
REMARK   68  A    between atoms: _167  and  _170
REMARK   69  A    between atoms: _170  and  _171
REMARK   70  A    between atoms: _174  and  _176
REMARK   71  A    between atoms: _176  and  _177
REMARK   72  A    between atoms: _179  and  _181
REMARK   73  A    between atoms: _181  and  _182
REMARK   74  A    between atoms: _181  and  _184
REMARK   75  A    between atoms: _184  and  _185
REMARK   76  A    between atoms: _185  and  _186
REMARK   77  A    between atoms: _186  and  _187
REMARK   78  A    between atoms: _196  and  _198
REMARK   79  A    between atoms: _198  and  _199
REMARK   80  A    between atoms: _198  and  _201
REMARK   81  A    between atoms: _201  and  _202
REMARK   82  A    between atoms: _207  and  _208
REMARK   83  A    between atoms: _211  and  _212
REMARK   84  A    between atoms: _217  and  _219
REMARK   85  A    between atoms: _219  and  _220
REMARK   86  A    between atoms: _219  and  _222
REMARK   87  A    between atoms: _222  and  _223
REMARK   88  A    between atoms: _226  and  _228
REMARK   89  A    between atoms: _228  and  _229
REMARK   90  A    between atoms: _228  and  _231
REMARK   91  A    between atoms: _231  and  _232
REMARK   92  A    between atoms: _237  and  _239
REMARK   93  A    between atoms: _239  and  _240
REMARK   94  A    between atoms: _239  and  _242
REMARK   95  A    between atoms: _242  and  _243
REMARK   96  A    between atoms: _253  and  _255
REMARK   97  A    between atoms: _255  and  _256
REMARK   98  A    between atoms: _255  and  _258
REMARK   99  A    between atoms: _258  and  _259
REMARK                            x       y       z     vdW  Elec       q    Type
REMARK                         _______ _______ _______ _____ _____    ______ ____
ROOT
ATOM      1  O   HOH     1       1.621   1.749   3.734  0.00  0.00    +0.000 OA
ENDROOT
TORSDOF 0
REMARK  Name = ../refined-set-2016/2y9g/2y9g_pocket.pdb
REMARK  99 active torsions:
REMARK  status: ('A' for Active; 'I' for Inactive)
REMARK    1  A    between atoms: _1  and  _3
REMARK    2  A    between atoms: _3  and  _4
REMARK    3  A    between atoms: _3  and  _6
REMARK    4  A    between atoms: _6  and  _7
REMARK    5  A    between atoms: _10  and  _12
REMARK    6  A    between atoms: _12  and  _13
REMARK    7  A    between atoms: _12  and  _15
REMARK    8  A    between atoms: _15  and  _16
REMARK    9  A    between atoms: _16  and  _17
REMARK   10  A    between atoms: _17  and  _18
REMARK   11  A    between atoms: _18  and  _19
REMARK   12  A    between atoms: _23  and  _25
REMARK   13  A    between atoms: _25  and  _26
REMARK   14  A    between atoms: _25  and  _28
REMARK   15  A    between atoms: _31  and  _33
REMARK   16  A    between atoms: _33  and  _34
REMARK   17  A    between atoms: _33  and  _36
REMARK   18  A    between atoms: _36  and  _37
REMARK   19  A    between atoms: _40  and  _42
REMARK   20  A    between atoms: _42  and  _43
REMARK   21  A    between atoms: _42  and  _45
REMARK   22  A    between atoms: _45  and  _46
REMARK   23  A    between atoms: _52  and  _54
REMARK   24  A    between atoms: _54  and  _55
REMARK   25  A    between atoms: _54  and  _57
REMARK   26  A    between atoms: _57  and  _58
REMARK   27  A    between atoms: _60  and  _62
REMARK   28  A    between atoms: _62  and  _63
REMARK   29  A    between atoms: _62  and  _65
REMARK   30  A    between atoms: _65  and  _66
REMARK   31  A    between atoms: _66  and  _67
REMARK   32  A    between atoms: _67  and  _68
REMARK   33  A    between atoms: _77  and  _79
REMARK   34  A    between atoms: _79  and  _80
REMARK   35  A    between atoms: _79  and  _82
REMARK   36  A    between atoms: _82  and  _83
REMARK   37  A    between atoms: _83  and  _84
REMARK   38  A    between atoms: _84  and  _85
REMARK   39  A    between atoms: _94  and  _96
REMARK   40  A    between atoms: _96  and  _97
REMARK   41  A    between atoms: _100  and  _102
REMARK   42  A    between atoms: _102  and  _103
REMARK   43  A    between atoms: _102  and  _105
REMARK   44  A    between atoms: _105  and  _106
REMARK   45  A    between atoms: _106  and  _107
REMARK   46  A    between atoms: _111  and  _112
REMARK   47  A    between atoms: _117  and  _119
REMARK   48  A    between atoms: _119  and  _120
REMARK   49  A    between atoms: _119  and  _122
REMARK   50  A    between atoms: _122  and  _123
REMARK   51  A    between atoms: _128  and  _129
REMARK   52  A    between atoms: _131  and  _133
REMARK   53  A    between atoms: _133  and  _134
REMARK   54  A    between atoms: _133  and  _136
REMARK   55  A    between atoms: _139  and  _141
REMARK   56  A    between atoms: _141  and  _142
REMARK   57  A    between atoms: _144  and  _146
REMARK   58  A    between atoms: _146  and  _147
REMARK   59  A    between atoms: _146  and  _149
REMARK   60  A    between atoms: _149  and  _150
REMARK   61  A    between atoms: _150  and  _151
REMARK   62  A    between atoms: _156  and  _158
REMARK   63  A    between atoms: _158  and  _159
REMARK   64  A    between atoms: _158  and  _161
REMARK   65  A    between atoms: _161  and  _162
REMARK   66  A    between atoms: _165  and  _167
REMARK   67  A    between atoms: _167  and  _168
REMARK   68  A    between atoms: _167  and  _170
REMARK   69  A    between atoms: _170  and  _171
REMARK   70  A    between atoms: _174  and  _176
REMARK   71  A    between atoms: _176  and  _177
REMARK   72  A    between atoms: _179  and  _181
REMARK   73  A    between atoms: _181  and  _182
REMARK   74  A    between atoms: _181  and  _184
REMARK   75  A    between atoms: _184  and  _185
REMARK   76  A    between atoms: _185  and  _186
REMARK   77  A    between atoms: _186  and  _187
REMARK   78  A    between atoms: _196  and  _198
REMARK   79  A    between atoms: _198  and  _199
REMARK   80  A    between atoms: _198  and  _201
REMARK   81  A    between atoms: _201  and  _202
REMARK   82  A    between atoms: _207  and  _208
REMARK   83  A    between atoms: _211  and  _212
REMARK   84  A    between atoms: _217  and  _219
REMARK   85  A    between atoms: _219  and  _220
REMARK   86  A    between atoms: _219  and  _222
REMARK   87  A    between atoms: _222  and  _223
REMARK   88  A    between atoms: _226  and  _228
REMARK   89  A    between atoms: _228  and  _229
REMARK   90  A    between atoms: _228  and  _231
REMARK   91  A    between atoms: _231  and  _232
REMARK   92  A    between atoms: _237  and  _239
REMARK   93  A    between atoms: _239  and  _240
REMARK   94  A    between atoms: _239  and  _242
REMARK   95  A    between atoms: _242  and  _243
REMARK   96  A    between atoms: _253  and  _255
REMARK   97  A    between atoms: _255  and  _256
REMARK   98  A    between atoms: _255  and  _258
REMARK   99  A    between atoms: _258  and  _259
REMARK                            x       y       z     vdW  Elec       q    Type
REMARK                         _______ _______ _______ _____ _____    ______ ____
ROOT
ATOM      1  O   HOH     1       4.792   7.045   5.830  0.00  0.00    +0.000 OA
ENDROOT
TORSDOF 0
REMARK  Name = ../refined-set-2016/2y9g/2y9g_pocket.pdb
REMARK  99 active torsions:
REMARK  status: ('A' for Active; 'I' for Inactive)
REMARK    1  A    between atoms: _1  and  _3
REMARK    2  A    between atoms: _3  and  _4
REMARK    3  A    between atoms: _3  and  _6
REMARK    4  A    between atoms: _6  and  _7
REMARK    5  A    between atoms: _10  and  _12
REMARK    6  A    between atoms: _12  and  _13
REMARK    7  A    between atoms: _12  and  _15
REMARK    8  A    between atoms: _15  and  _16
REMARK    9  A    between atoms: _16  and  _17
REMARK   10  A    between atoms: _17  and  _18
REMARK   11  A    between atoms: _18  and  _19
REMARK   12  A    between atoms: _23  and  _25
REMARK   13  A    between atoms: _25  and  _26
REMARK   14  A    between atoms: _25  and  _28
REMARK   15  A    between atoms: _31  and  _33
REMARK   16  A    between atoms: _33  and  _34
REMARK   17  A    between atoms: _33  and  _36
REMARK   18  A    between atoms: _36  and  _37
REMARK   19  A    between atoms: _40  and  _42
REMARK   20  A    between atoms: _42  and  _43
REMARK   21  A    between atoms: _42  and  _45
REMARK   22  A    between atoms: _45  and  _46
REMARK   23  A    between atoms: _52  and  _54
REMARK   24  A    between atoms: _54  and  _55
REMARK   25  A    between atoms: _54  and  _57
REMARK   26  A    between atoms: _57  and  _58
REMARK   27  A    between atoms: _60  and  _62
REMARK   28  A    between atoms: _62  and  _63
REMARK   29  A    between atoms: _62  and  _65
REMARK   30  A    between atoms: _65  and  _66
REMARK   31  A    between atoms: _66  and  _67
REMARK   32  A    between atoms: _67  and  _68
REMARK   33  A    between atoms: _77  and  _79
REMARK   34  A    between atoms: _79  and  _80
REMARK   35  A    between atoms: _79  and  _82
REMARK   36  A    between atoms: _82  and  _83
REMARK   37  A    between atoms: _83  and  _84
REMARK   38  A    between atoms: _84  and  _85
REMARK   39  A    between atoms: _94  and  _96
REMARK   40  A    between atoms: _96  and  _97
REMARK   41  A    between atoms: _100  and  _102
REMARK   42  A    between atoms: _102  and  _103
REMARK   43  A    between atoms: _102  and  _105
REMARK   44  A    between atoms: _105  and  _106
REMARK   45  A    between atoms: _106  and  _107
REMARK   46  A    between atoms: _111  and  _112
REMARK   47  A    between atoms: _117  and  _119
REMARK   48  A    between atoms: _119  and  _120
REMARK   49  A    between atoms: _119  and  _122
REMARK   50  A    between atoms: _122  and  _123
REMARK   51  A    between atoms: _128  and  _129
REMARK   52  A    between atoms: _131  and  _133
REMARK   53  A    between atoms: _133  and  _134
REMARK   54  A    between atoms: _133  and  _136
REMARK   55  A    between atoms: _139  and  _141
REMARK   56  A    between atoms: _141  and  _142
REMARK   57  A    between atoms: _144  and  _146
REMARK   58  A    between atoms: _146  and  _147
REMARK   59  A    between atoms: _146  and  _149
REMARK   60  A    between atoms: _149  and  _150
REMARK   61  A    between atoms: _150  and  _151
REMARK   62  A    between atoms: _156  and  _158
REMARK   63  A    between atoms: _158  and  _159
REMARK   64  A    between atoms: _158  and  _161
REMARK   65  A    between atoms: _161  and  _162
REMARK   66  A    between atoms: _165  and  _167
REMARK   67  A    between atoms: _167  and  _168
REMARK   68  A    between atoms: _167  and  _170
REMARK   69  A    between atoms: _170  and  _171
REMARK   70  A    between atoms: _174  and  _176
REMARK   71  A    between atoms: _176  and  _177
REMARK   72  A    between atoms: _179  and  _181
REMARK   73  A    between atoms: _181  and  _182
REMARK   74  A    between atoms: _181  and  _184
REMARK   75  A    between atoms: _184  and  _185
REMARK   76  A    between atoms: _185  and  _186
REMARK   77  A    between atoms: _186  and  _187
REMARK   78  A    between atoms: _196  and  _198
REMARK   79  A    between atoms: _198  and  _199
REMARK   80  A    between atoms: _198  and  _201
REMARK   81  A    between atoms: _201  and  _202
REMARK   82  A    between atoms: _207  and  _208
REMARK   83  A    between atoms: _211  and  _212
REMARK   84  A    between atoms: _217  and  _219
REMARK   85  A    between atoms: _219  and  _220
REMARK   86  A    between atoms: _219  and  _222
REMARK   87  A    between atoms: _222  and  _223
REMARK   88  A    between atoms: _226  and  _228
REMARK   89  A    between atoms: _228  and  _229
REMARK   90  A    between atoms: _228  and  _231
REMARK   91  A    between atoms: _231  and  _232
REMARK   92  A    between atoms: _237  and  _239
REMARK   93  A    between atoms: _239  and  _240
REMARK   94  A    between atoms: _239  and  _242
REMARK   95  A    between atoms: _242  and  _243
REMARK   96  A    between atoms: _253  and  _255
REMARK   97  A    between atoms: _255  and  _256
REMARK   98  A    between atoms: _255  and  _258
REMARK   99  A    between atoms: _258  and  _259
REMARK                            x       y       z     vdW  Elec       q    Type
REMARK                         _______ _______ _______ _____ _____    ______ ____
ROOT
ATOM      1  O   HOH     1       2.283   6.842   8.640  0.00  0.00    +0.000 OA
ENDROOT
TORSDOF 0
REMARK  Name = ../refined-set-2016/2y9g/2y9g_pocket.pdb
REMARK  99 active torsions:
REMARK  status: ('A' for Active; 'I' for Inactive)
REMARK    1  A    between atoms: _1  and  _3
REMARK    2  A    between atoms: _3  and  _4
REMARK    3  A    between atoms: _3  and  _6
REMARK    4  A    between atoms: _6  and  _7
REMARK    5  A    between atoms: _10  and  _12
REMARK    6  A    between atoms: _12  and  _13
REMARK    7  A    between atoms: _12  and  _15
REMARK    8  A    between atoms: _15  and  _16
REMARK    9  A    between atoms: _16  and  _17
REMARK   10  A    between atoms: _17  and  _18
REMARK   11  A    between atoms: _18  and  _19
REMARK   12  A    between atoms: _23  and  _25
REMARK   13  A    between atoms: _25  and  _26
REMARK   14  A    between atoms: _25  and  _28
REMARK   15  A    between atoms: _31  and  _33
REMARK   16  A    between atoms: _33  and  _34
REMARK   17  A    between atoms: _33  and  _36
REMARK   18  A    between atoms: _36  and  _37
REMARK   19  A    between atoms: _40  and  _42
REMARK   20  A    between atoms: _42  and  _43
REMARK   21  A    between atoms: _42  and  _45
REMARK   22  A    between atoms: _45  and  _46
REMARK   23  A    between atoms: _52  and  _54
REMARK   24  A    between atoms: _54  and  _55
REMARK   25  A    between atoms: _54  and  _57
REMARK   26  A    between atoms: _57  and  _58
REMARK   27  A    between atoms: _60  and  _62
REMARK   28  A    between atoms: _62  and  _63
REMARK   29  A    between atoms: _62  and  _65
REMARK   30  A    between atoms: _65  and  _66
REMARK   31  A    between atoms: _66  and  _67
REMARK   32  A    between atoms: _67  and  _68
REMARK   33  A    between atoms: _77  and  _79
REMARK   34  A    between atoms: _79  and  _80
REMARK   35  A    between atoms: _79  and  _82
REMARK   36  A    between atoms: _82  and  _83
REMARK   37  A    between atoms: _83  and  _84
REMARK   38  A    between atoms: _84  and  _85
REMARK   39  A    between atoms: _94  and  _96
REMARK   40  A    between atoms: _96  and  _97
REMARK   41  A    between atoms: _100  and  _102
REMARK   42  A    between atoms: _102  and  _103
REMARK   43  A    between atoms: _102  and  _105
REMARK   44  A    between atoms: _105  and  _106
REMARK   45  A    between atoms: _106  and  _107
REMARK   46  A    between atoms: _111  and  _112
REMARK   47  A    between atoms: _117  and  _119
REMARK   48  A    between atoms: _119  and  _120
REMARK   49  A    between atoms: _119  and  _122
REMARK   50  A    between atoms: _122  and  _123
REMARK   51  A    between atoms: _128  and  _129
REMARK   52  A    between atoms: _131  and  _133
REMARK   53  A    between atoms: _133  and  _134
REMARK   54  A    between atoms: _133  and  _136
REMARK   55  A    between atoms: _139  and  _141
REMARK   56  A    between atoms: _141  and  _142
REMARK   57  A    between atoms: _144  and  _146
REMARK   58  A    between atoms: _146  and  _147
REMARK   59  A    between atoms: _146  and  _149
REMARK   60  A    between atoms: _149  and  _150
REMARK   61  A    between atoms: _150  and  _151
REMARK   62  A    between atoms: _156  and  _158
REMARK   63  A    between atoms: _158  and  _159
REMARK   64  A    between atoms: _158  and  _161
REMARK   65  A    between atoms: _161  and  _162
REMARK   66  A    between atoms: _165  and  _167
REMARK   67  A    between atoms: _167  and  _168
REMARK   68  A    between atoms: _167  and  _170
REMARK   69  A    between atoms: _170  and  _171
REMARK   70  A    between atoms: _174  and  _176
REMARK   71  A    between atoms: _176  and  _177
REMARK   72  A    between atoms: _179  and  _181
REMARK   73  A    between atoms: _181  and  _182
REMARK   74  A    between atoms: _181  and  _184
REMARK   75  A    between atoms: _184  and  _185
REMARK   76  A    between atoms: _185  and  _186
REMARK   77  A    between atoms: _186  and  _187
REMARK   78  A    between atoms: _196  and  _198
REMARK   79  A    between atoms: _198  and  _199
REMARK   80  A    between atoms: _198  and  _201
REMARK   81  A    between atoms: _201  and  _202
REMARK   82  A    between atoms: _207  and  _208
REMARK   83  A    between atoms: _211  and  _212
REMARK   84  A    between atoms: _217  and  _219
REMARK   85  A    between atoms: _219  and  _220
REMARK   86  A    between atoms: _219  and  _222
REMARK   87  A    between atoms: _222  and  _223
REMARK   88  A    between atoms: _226  and  _228
REMARK   89  A    between atoms: _228  and  _229
REMARK   90  A    between atoms: _228  and  _231
REMARK   91  A    between atoms: _231  and  _232
REMARK   92  A    between atoms: _237  and  _239
REMARK   93  A    between atoms: _239  and  _240
REMARK   94  A    between atoms: _239  and  _242
REMARK   95  A    between atoms: _242  and  _243
REMARK   96  A    between atoms: _253  and  _255
REMARK   97  A    between atoms: _255  and  _256
REMARK   98  A    between atoms: _255  and  _258
REMARK   99  A    between atoms: _258  and  _259
REMARK                            x       y       z     vdW  Elec       q    Type
REMARK                         _______ _______ _______ _____ _____    ______ ____
ROOT
ATOM      1  O   HOH     1       2.206  -1.609   1.398  0.00  0.00    +0.000 OA
ENDROOT
TORSDOF 0
REMARK  Name = ../refined-set-2016/2y9g/2y9g_pocket.pdb
REMARK  99 active torsions:
REMARK  status: ('A' for Active; 'I' for Inactive)
REMARK    1  A    between atoms: _1  and  _3
REMARK    2  A    between atoms: _3  and  _4
REMARK    3  A    between atoms: _3  and  _6
REMARK    4  A    between atoms: _6  and  _7
REMARK    5  A    between atoms: _10  and  _12
REMARK    6  A    between atoms: _12  and  _13
REMARK    7  A    between atoms: _12  and  _15
REMARK    8  A    between atoms: _15  and  _16
REMARK    9  A    between atoms: _16  and  _17
REMARK   10  A    between atoms: _17  and  _18
REMARK   11  A    between atoms: _18  and  _19
REMARK   12  A    between atoms: _23  and  _25
REMARK   13  A    between atoms: _25  and  _26
REMARK   14  A    between atoms: _25  and  _28
REMARK   15  A    between atoms: _31  and  _33
REMARK   16  A    between atoms: _33  and  _34
REMARK   17  A    between atoms: _33  and  _36
REMARK   18  A    between atoms: _36  and  _37
REMARK   19  A    between atoms: _40  and  _42
REMARK   20  A    between atoms: _42  and  _43
REMARK   21  A    between atoms: _42  and  _45
REMARK   22  A    between atoms: _45  and  _46
REMARK   23  A    between atoms: _52  and  _54
REMARK   24  A    between atoms: _54  and  _55
REMARK   25  A    between atoms: _54  and  _57
REMARK   26  A    between atoms: _57  and  _58
REMARK   27  A    between atoms: _60  and  _62
REMARK   28  A    between atoms: _62  and  _63
REMARK   29  A    between atoms: _62  and  _65
REMARK   30  A    between atoms: _65  and  _66
REMARK   31  A    between atoms: _66  and  _67
REMARK   32  A    between atoms: _67  and  _68
REMARK   33  A    between atoms: _77  and  _79
REMARK   34  A    between atoms: _79  and  _80
REMARK   35  A    between atoms: _79  and  _82
REMARK   36  A    between atoms: _82  and  _83
REMARK   37  A    between atoms: _83  and  _84
REMARK   38  A    between atoms: _84  and  _85
REMARK   39  A    between atoms: _94  and  _96
REMARK   40  A    between atoms: _96  and  _97
REMARK   41  A    between atoms: _100  and  _102
REMARK   42  A    between atoms: _102  and  _103
REMARK   43  A    between atoms: _102  and  _105
REMARK   44  A    between atoms: _105  and  _106
REMARK   45  A    between atoms: _106  and  _107
REMARK   46  A    between atoms: _111  and  _112
REMARK   47  A    between atoms: _117  and  _119
REMARK   48  A    between atoms: _119  and  _120
REMARK   49  A    between atoms: _119  and  _122
REMARK   50  A    between atoms: _122  and  _123
REMARK   51  A    between atoms: _128  and  _129
REMARK   52  A    between atoms: _131  and  _133
REMARK   53  A    between atoms: _133  and  _134
REMARK   54  A    between atoms: _133  and  _136
REMARK   55  A    between atoms: _139  and  _141
REMARK   56  A    between atoms: _141  and  _142
REMARK   57  A    between atoms: _144  and  _146
REMARK   58  A    between atoms: _146  and  _147
REMARK   59  A    between atoms: _146  and  _149
REMARK   60  A    between atoms: _149  and  _150
REMARK   61  A    between atoms: _150  and  _151
REMARK   62  A    between atoms: _156  and  _158
REMARK   63  A    between atoms: _158  and  _159
REMARK   64  A    between atoms: _158  and  _161
REMARK   65  A    between atoms: _161  and  _162
REMARK   66  A    between atoms: _165  and  _167
REMARK   67  A    between atoms: _167  and  _168
REMARK   68  A    between atoms: _167  and  _170
REMARK   69  A    between atoms: _170  and  _171
REMARK   70  A    between atoms: _174  and  _176
REMARK   71  A    between atoms: _176  and  _177
REMARK   72  A    between atoms: _179  and  _181
REMARK   73  A    between atoms: _181  and  _182
REMARK   74  A    between atoms: _181  and  _184
REMARK   75  A    between atoms: _184  and  _185
REMARK   76  A    between atoms: _185  and  _186
REMARK   77  A    between atoms: _186  and  _187
REMARK   78  A    between atoms: _196  and  _198
REMARK   79  A    between atoms: _198  and  _199
REMARK   80  A    between atoms: _198  and  _201
REMARK   81  A    between atoms: _201  and  _202
REMARK   82  A    between atoms: _207  and  _208
REMARK   83  A    between atoms: _211  and  _212
REMARK   84  A    between atoms: _217  and  _219
REMARK   85  A    between atoms: _219  and  _220
REMARK   86  A    between atoms: _219  and  _222
REMARK   87  A    between atoms: _222  and  _223
REMARK   88  A    between atoms: _226  and  _228
REMARK   89  A    between atoms: _228  and  _229
REMARK   90  A    between atoms: _228  and  _231
REMARK   91  A    between atoms: _231  and  _232
REMARK   92  A    between atoms: _237  and  _239
REMARK   93  A    between atoms: _239  and  _240
REMARK   94  A    between atoms: _239  and  _242
REMARK   95  A    between atoms: _242  and  _243
REMARK   96  A    between atoms: _253  and  _255
REMARK   97  A    between atoms: _255  and  _256
REMARK   98  A    between atoms: _255  and  _258
REMARK   99  A    between atoms: _258  and  _259
REMARK                            x       y       z     vdW  Elec       q    Type
REMARK                         _______ _______ _______ _____ _____    ______ ____
ROOT
ATOM      1  O   HOH     1       4.698   3.443   6.502  0.00  0.00    +0.000 OA
ENDROOT
TORSDOF 0
REMARK  Name = ../refined-set-2016/2y9g/2y9g_pocket.pdb
REMARK  99 active torsions:
REMARK  status: ('A' for Active; 'I' for Inactive)
REMARK    1  A    between atoms: _1  and  _3
REMARK    2  A    between atoms: _3  and  _4
REMARK    3  A    between atoms: _3  and  _6
REMARK    4  A    between atoms: _6  and  _7
REMARK    5  A    between atoms: _10  and  _12
REMARK    6  A    between atoms: _12  and  _13
REMARK    7  A    between atoms: _12  and  _15
REMARK    8  A    between atoms: _15  and  _16
REMARK    9  A    between atoms: _16  and  _17
REMARK   10  A    between atoms: _17  and  _18
REMARK   11  A    between atoms: _18  and  _19
REMARK   12  A    between atoms: _23  and  _25
REMARK   13  A    between atoms: _25  and  _26
REMARK   14  A    between atoms: _25  and  _28
REMARK   15  A    between atoms: _31  and  _33
REMARK   16  A    between atoms: _33  and  _34
REMARK   17  A    between atoms: _33  and  _36
REMARK   18  A    between atoms: _36  and  _37
REMARK   19  A    between atoms: _40  and  _42
REMARK   20  A    between atoms: _42  and  _43
REMARK   21  A    between atoms: _42  and  _45
REMARK   22  A    between atoms: _45  and  _46
REMARK   23  A    between atoms: _52  and  _54
REMARK   24  A    between atoms: _54  and  _55
REMARK   25  A    between atoms: _54  and  _57
REMARK   26  A    between atoms: _57  and  _58
REMARK   27  A    between atoms: _60  and  _62
REMARK   28  A    between atoms: _62  and  _63
REMARK   29  A    between atoms: _62  and  _65
REMARK   30  A    between atoms: _65  and  _66
REMARK   31  A    between atoms: _66  and  _67
REMARK   32  A    between atoms: _67  and  _68
REMARK   33  A    between atoms: _77  and  _79
REMARK   34  A    between atoms: _79  and  _80
REMARK   35  A    between atoms: _79  and  _82
REMARK   36  A    between atoms: _82  and  _83
REMARK   37  A    between atoms: _83  and  _84
REMARK   38  A    between atoms: _84  and  _85
REMARK   39  A    between atoms: _94  and  _96
REMARK   40  A    between atoms: _96  and  _97
REMARK   41  A    between atoms: _100  and  _102
REMARK   42  A    between atoms: _102  and  _103
REMARK   43  A    between atoms: _102  and  _105
REMARK   44  A    between atoms: _105  and  _106
REMARK   45  A    between atoms: _106  and  _107
REMARK   46  A    between atoms: _111  and  _112
REMARK   47  A    between atoms: _117  and  _119
REMARK   48  A    between atoms: _119  and  _120
REMARK   49  A    between atoms: _119  and  _122
REMARK   50  A    between atoms: _122  and  _123
REMARK   51  A    between atoms: _128  and  _129
REMARK   52  A    between atoms: _131  and  _133
REMARK   53  A    between atoms: _133  and  _134
REMARK   54  A    between atoms: _133  and  _136
REMARK   55  A    between atoms: _139  and  _141
REMARK   56  A    between atoms: _141  and  _142
REMARK   57  A    between atoms: _144  and  _146
REMARK   58  A    between atoms: _146  and  _147
REMARK   59  A    between atoms: _146  and  _149
REMARK   60  A    between atoms: _149  and  _150
REMARK   61  A    between atoms: _150  and  _151
REMARK   62  A    between atoms: _156  and  _158
REMARK   63  A    between atoms: _158  and  _159
REMARK   64  A    between atoms: _158  and  _161
REMARK   65  A    between atoms: _161  and  _162
REMARK   66  A    between atoms: _165  and  _167
REMARK   67  A    between atoms: _167  and  _168
REMARK   68  A    between atoms: _167  and  _170
REMARK   69  A    between atoms: _170  and  _171
REMARK   70  A    between atoms: _174  and  _176
REMARK   71  A    between atoms: _176  and  _177
REMARK   72  A    between atoms: _179  and  _181
REMARK   73  A    between atoms: _181  and  _182
REMARK   74  A    between atoms: _181  and  _184
REMARK   75  A    between atoms: _184  and  _185
REMARK   76  A    between atoms: _185  and  _186
REMARK   77  A    between atoms: _186  and  _187
REMARK   78  A    between atoms: _196  and  _198
REMARK   79  A    between atoms: _198  and  _199
REMARK   80  A    between atoms: _198  and  _201
REMARK   81  A    between atoms: _201  and  _202
REMARK   82  A    between atoms: _207  and  _208
REMARK   83  A    between atoms: _211  and  _212
REMARK   84  A    between atoms: _217  and  _219
REMARK   85  A    between atoms: _219  and  _220
REMARK   86  A    between atoms: _219  and  _222
REMARK   87  A    between atoms: _222  and  _223
REMARK   88  A    between atoms: _226  and  _228
REMARK   89  A    between atoms: _228  and  _229
REMARK   90  A    between atoms: _228  and  _231
REMARK   91  A    between atoms: _231  and  _232
REMARK   92  A    between atoms: _237  and  _239
REMARK   93  A    between atoms: _239  and  _240
REMARK   94  A    between atoms: _239  and  _242
REMARK   95  A    between atoms: _242  and  _243
REMARK   96  A    between atoms: _253  and  _255
REMARK   97  A    between atoms: _255  and  _256
REMARK   98  A    between atoms: _255  and  _258
REMARK   99  A    between atoms: _258  and  _259
REMARK                            x       y       z     vdW  Elec       q    Type
REMARK                         _______ _______ _______ _____ _____    ______ ____
ROOT
ATOM      1  O   HOH     1       4.028   1.319   4.415  0.00  0.00    +0.000 OA
ENDROOT
TORSDOF 0
REMARK  Name = ../refined-set-2016/2y9g/2y9g_pocket.pdb
REMARK  99 active torsions:
REMARK  status: ('A' for Active; 'I' for Inactive)
REMARK    1  A    between atoms: _1  and  _3
REMARK    2  A    between atoms: _3  and  _4
REMARK    3  A    between atoms: _3  and  _6
REMARK    4  A    between atoms: _6  and  _7
REMARK    5  A    between atoms: _10  and  _12
REMARK    6  A    between atoms: _12  and  _13
REMARK    7  A    between atoms: _12  and  _15
REMARK    8  A    between atoms: _15  and  _16
REMARK    9  A    between atoms: _16  and  _17
REMARK   10  A    between atoms: _17  and  _18
REMARK   11  A    between atoms: _18  and  _19
REMARK   12  A    between atoms: _23  and  _25
REMARK   13  A    between atoms: _25  and  _26
REMARK   14  A    between atoms: _25  and  _28
REMARK   15  A    between atoms: _31  and  _33
REMARK   16  A    between atoms: _33  and  _34
REMARK   17  A    between atoms: _33  and  _36
REMARK   18  A    between atoms: _36  and  _37
REMARK   19  A    between atoms: _40  and  _42
REMARK   20  A    between atoms: _42  and  _43
REMARK   21  A    between atoms: _42  and  _45
REMARK   22  A    between atoms: _45  and  _46
REMARK   23  A    between atoms: _52  and  _54
REMARK   24  A    between atoms: _54  and  _55
REMARK   25  A    between atoms: _54  and  _57
REMARK   26  A    between atoms: _57  and  _58
REMARK   27  A    between atoms: _60  and  _62
REMARK   28  A    between atoms: _62  and  _63
REMARK   29  A    between atoms: _62  and  _65
REMARK   30  A    between atoms: _65  and  _66
REMARK   31  A    between atoms: _66  and  _67
REMARK   32  A    between atoms: _67  and  _68
REMARK   33  A    between atoms: _77  and  _79
REMARK   34  A    between atoms: _79  and  _80
REMARK   35  A    between atoms: _79  and  _82
REMARK   36  A    between atoms: _82  and  _83
REMARK   37  A    between atoms: _83  and  _84
REMARK   38  A    between atoms: _84  and  _85
REMARK   39  A    between atoms: _94  and  _96
REMARK   40  A    between atoms: _96  and  _97
REMARK   41  A    between atoms: _100  and  _102
REMARK   42  A    between atoms: _102  and  _103
REMARK   43  A    between atoms: _102  and  _105
REMARK   44  A    between atoms: _105  and  _106
REMARK   45  A    between atoms: _106  and  _107
REMARK   46  A    between atoms: _111  and  _112
REMARK   47  A    between atoms: _117  and  _119
REMARK   48  A    between atoms: _119  and  _120
REMARK   49  A    between atoms: _119  and  _122
REMARK   50  A    between atoms: _122  and  _123
REMARK   51  A    between atoms: _128  and  _129
REMARK   52  A    between atoms: _131  and  _133
REMARK   53  A    between atoms: _133  and  _134
REMARK   54  A    between atoms: _133  and  _136
REMARK   55  A    between atoms: _139  and  _141
REMARK   56  A    between atoms: _141  and  _142
REMARK   57  A    between atoms: _144  and  _146
REMARK   58  A    between atoms: _146  and  _147
REMARK   59  A    between atoms: _146  and  _149
REMARK   60  A    between atoms: _149  and  _150
REMARK   61  A    between atoms: _150  and  _151
REMARK   62  A    between atoms: _156  and  _158
REMARK   63  A    between atoms: _158  and  _159
REMARK   64  A    between atoms: _158  and  _161
REMARK   65  A    between atoms: _161  and  _162
REMARK   66  A    between atoms: _165  and  _167
REMARK   67  A    between atoms: _167  and  _168
REMARK   68  A    between atoms: _167  and  _170
REMARK   69  A    between atoms: _170  and  _171
REMARK   70  A    between atoms: _174  and  _176
REMARK   71  A    between atoms: _176  and  _177
REMARK   72  A    between atoms: _179  and  _181
REMARK   73  A    between atoms: _181  and  _182
REMARK   74  A    between atoms: _181  and  _184
REMARK   75  A    between atoms: _184  and  _185
REMARK   76  A    between atoms: _185  and  _186
REMARK   77  A    between atoms: _186  and  _187
REMARK   78  A    between atoms: _196  and  _198
REMARK   79  A    between atoms: _198  and  _199
REMARK   80  A    between atoms: _198  and  _201
REMARK   81  A    between atoms: _201  and  _202
REMARK   82  A    between atoms: _207  and  _208
REMARK   83  A    between atoms: _211  and  _212
REMARK   84  A    between atoms: _217  and  _219
REMARK   85  A    between atoms: _219  and  _220
REMARK   86  A    between atoms: _219  and  _222
REMARK   87  A    between atoms: _222  and  _223
REMARK   88  A    between atoms: _226  and  _228
REMARK   89  A    between atoms: _228  and  _229
REMARK   90  A    between atoms: _228  and  _231
REMARK   91  A    between atoms: _231  and  _232
REMARK   92  A    between atoms: _237  and  _239
REMARK   93  A    between atoms: _239  and  _240
REMARK   94  A    between atoms: _239  and  _242
REMARK   95  A    between atoms: _242  and  _243
REMARK   96  A    between atoms: _253  and  _255
REMARK   97  A    between atoms: _255  and  _256
REMARK   98  A    between atoms: _255  and  _258
REMARK   99  A    between atoms: _258  and  _259
REMARK                            x       y       z     vdW  Elec       q    Type
REMARK                         _______ _______ _______ _____ _____    ______ ____
ROOT
ATOM      1  O   HOH     1      -1.826  11.592  -4.984  0.00  0.00    +0.000 OA
ENDROOT
TORSDOF 0
REMARK  Name = ../refined-set-2016/2y9g/2y9g_pocket.pdb
REMARK  99 active torsions:
REMARK  status: ('A' for Active; 'I' for Inactive)
REMARK    1  A    between atoms: _1  and  _3
REMARK    2  A    between atoms: _3  and  _4
REMARK    3  A    between atoms: _3  and  _6
REMARK    4  A    between atoms: _6  and  _7
REMARK    5  A    between atoms: _10  and  _12
REMARK    6  A    between atoms: _12  and  _13
REMARK    7  A    between atoms: _12  and  _15
REMARK    8  A    between atoms: _15  and  _16
REMARK    9  A    between atoms: _16  and  _17
REMARK   10  A    between atoms: _17  and  _18
REMARK   11  A    between atoms: _18  and  _19
REMARK   12  A    between atoms: _23  and  _25
REMARK   13  A    between atoms: _25  and  _26
REMARK   14  A    between atoms: _25  and  _28
REMARK   15  A    between atoms: _31  and  _33
REMARK   16  A    between atoms: _33  and  _34
REMARK   17  A    between atoms: _33  and  _36
REMARK   18  A    between atoms: _36  and  _37
REMARK   19  A    between atoms: _40  and  _42
REMARK   20  A    between atoms: _42  and  _43
REMARK   21  A    between atoms: _42  and  _45
REMARK   22  A    between atoms: _45  and  _46
REMARK   23  A    between atoms: _52  and  _54
REMARK   24  A    between atoms: _54  and  _55
REMARK   25  A    between atoms: _54  and  _57
REMARK   26  A    between atoms: _57  and  _58
REMARK   27  A    between atoms: _60  and  _62
REMARK   28  A    between atoms: _62  and  _63
REMARK   29  A    between atoms: _62  and  _65
REMARK   30  A    between atoms: _65  and  _66
REMARK   31  A    between atoms: _66  and  _67
REMARK   32  A    between atoms: _67  and  _68
REMARK   33  A    between atoms: _77  and  _79
REMARK   34  A    between atoms: _79  and  _80
REMARK   35  A    between atoms: _79  and  _82
REMARK   36  A    between atoms: _82  and  _83
REMARK   37  A    between atoms: _83  and  _84
REMARK   38  A    between atoms: _84  and  _85
REMARK   39  A    between atoms: _94  and  _96
REMARK   40  A    between atoms: _96  and  _97
REMARK   41  A    between atoms: _100  and  _102
REMARK   42  A    between atoms: _102  and  _103
REMARK   43  A    between atoms: _102  and  _105
REMARK   44  A    between atoms: _105  and  _106
REMARK   45  A    between atoms: _106  and  _107
REMARK   46  A    between atoms: _111  and  _112
REMARK   47  A    between atoms: _117  and  _119
REMARK   48  A    between atoms: _119  and  _120
REMARK   49  A    between atoms: _119  and  _122
REMARK   50  A    between atoms: _122  and  _123
REMARK   51  A    between atoms: _128  and  _129
REMARK   52  A    between atoms: _131  and  _133
REMARK   53  A    between atoms: _133  and  _134
REMARK   54  A    between atoms: _133  and  _136
REMARK   55  A    between atoms: _139  and  _141
REMARK   56  A    between atoms: _141  and  _142
REMARK   57  A    between atoms: _144  and  _146
REMARK   58  A    between atoms: _146  and  _147
REMARK   59  A    between atoms: _146  and  _149
REMARK   60  A    between atoms: _149  and  _150
REMARK   61  A    between atoms: _150  and  _151
REMARK   62  A    between atoms: _156  and  _158
REMARK   63  A    between atoms: _158  and  _159
REMARK   64  A    between atoms: _158  and  _161
REMARK   65  A    between atoms: _161  and  _162
REMARK   66  A    between atoms: _165  and  _167
REMARK   67  A    between atoms: _167  and  _168
REMARK   68  A    between atoms: _167  and  _170
REMARK   69  A    between atoms: _170  and  _171
REMARK   70  A    between atoms: _174  and  _176
REMARK   71  A    between atoms: _176  and  _177
REMARK   72  A    between atoms: _179  and  _181
REMARK   73  A    between atoms: _181  and  _182
REMARK   74  A    between atoms: _181  and  _184
REMARK   75  A    between atoms: _184  and  _185
REMARK   76  A    between atoms: _185  and  _186
REMARK   77  A    between atoms: _186  and  _187
REMARK   78  A    between atoms: _196  and  _198
REMARK   79  A    between atoms: _198  and  _199
REMARK   80  A    between atoms: _198  and  _201
REMARK   81  A    between atoms: _201  and  _202
REMARK   82  A    between atoms: _207  and  _208
REMARK   83  A    between atoms: _211  and  _212
REMARK   84  A    between atoms: _217  and  _219
REMARK   85  A    between atoms: _219  and  _220
REMARK   86  A    between atoms: _219  and  _222
REMARK   87  A    between atoms: _222  and  _223
REMARK   88  A    between atoms: _226  and  _228
REMARK   89  A    between atoms: _228  and  _229
REMARK   90  A    between atoms: _228  and  _231
REMARK   91  A    between atoms: _231  and  _232
REMARK   92  A    between atoms: _237  and  _239
REMARK   93  A    between atoms: _239  and  _240
REMARK   94  A    between atoms: _239  and  _242
REMARK   95  A    between atoms: _242  and  _243
REMARK   96  A    between atoms: _253  and  _255
REMARK   97  A    between atoms: _255  and  _256
REMARK   98  A    between atoms: _255  and  _258
REMARK   99  A    between atoms: _258  and  _259
REMARK                            x       y       z     vdW  Elec       q    Type
REMARK                         _______ _______ _______ _____ _____    ______ ____
ROOT
ATOM      1  O   HOH     1      -4.317  11.833   6.193  0.00  0.00    +0.000 OA
ENDROOT
TORSDOF 0
REMARK  Name = ../refined-set-2016/2y9g/2y9g_pocket.pdb
REMARK  99 active torsions:
REMARK  status: ('A' for Active; 'I' for Inactive)
REMARK    1  A    between atoms: _1  and  _3
REMARK    2  A    between atoms: _3  and  _4
REMARK    3  A    between atoms: _3  and  _6
REMARK    4  A    between atoms: _6  and  _7
REMARK    5  A    between atoms: _10  and  _12
REMARK    6  A    between atoms: _12  and  _13
REMARK    7  A    between atoms: _12  and  _15
REMARK    8  A    between atoms: _15  and  _16
REMARK    9  A    between atoms: _16  and  _17
REMARK   10  A    between atoms: _17  and  _18
REMARK   11  A    between atoms: _18  and  _19
REMARK   12  A    between atoms: _23  and  _25
REMARK   13  A    between atoms: _25  and  _26
REMARK   14  A    between atoms: _25  and  _28
REMARK   15  A    between atoms: _31  and  _33
REMARK   16  A    between atoms: _33  and  _34
REMARK   17  A    between atoms: _33  and  _36
REMARK   18  A    between atoms: _36  and  _37
REMARK   19  A    between atoms: _40  and  _42
REMARK   20  A    between atoms: _42  and  _43
REMARK   21  A    between atoms: _42  and  _45
REMARK   22  A    between atoms: _45  and  _46
REMARK   23  A    between atoms: _52  and  _54
REMARK   24  A    between atoms: _54  and  _55
REMARK   25  A    between atoms: _54  and  _57
REMARK   26  A    between atoms: _57  and  _58
REMARK   27  A    between atoms: _60  and  _62
REMARK   28  A    between atoms: _62  and  _63
REMARK   29  A    between atoms: _62  and  _65
REMARK   30  A    between atoms: _65  and  _66
REMARK   31  A    between atoms: _66  and  _67
REMARK   32  A    between atoms: _67  and  _68
REMARK   33  A    between atoms: _77  and  _79
REMARK   34  A    between atoms: _79  and  _80
REMARK   35  A    between atoms: _79  and  _82
REMARK   36  A    between atoms: _82  and  _83
REMARK   37  A    between atoms: _83  and  _84
REMARK   38  A    between atoms: _84  and  _85
REMARK   39  A    between atoms: _94  and  _96
REMARK   40  A    between atoms: _96  and  _97
REMARK   41  A    between atoms: _100  and  _102
REMARK   42  A    between atoms: _102  and  _103
REMARK   43  A    between atoms: _102  and  _105
REMARK   44  A    between atoms: _105  and  _106
REMARK   45  A    between atoms: _106  and  _107
REMARK   46  A    between atoms: _111  and  _112
REMARK   47  A    between atoms: _117  and  _119
REMARK   48  A    between atoms: _119  and  _120
REMARK   49  A    between atoms: _119  and  _122
REMARK   50  A    between atoms: _122  and  _123
REMARK   51  A    between atoms: _128  and  _129
REMARK   52  A    between atoms: _131  and  _133
REMARK   53  A    between atoms: _133  and  _134
REMARK   54  A    between atoms: _133  and  _136
REMARK   55  A    between atoms: _139  and  _141
REMARK   56  A    between atoms: _141  and  _142
REMARK   57  A    between atoms: _144  and  _146
REMARK   58  A    between atoms: _146  and  _147
REMARK   59  A    between atoms: _146  and  _149
REMARK   60  A    between atoms: _149  and  _150
REMARK   61  A    between atoms: _150  and  _151
REMARK   62  A    between atoms: _156  and  _158
REMARK   63  A    between atoms: _158  and  _159
REMARK   64  A    between atoms: _158  and  _161
REMARK   65  A    between atoms: _161  and  _162
REMARK   66  A    between atoms: _165  and  _167
REMARK   67  A    between atoms: _167  and  _168
REMARK   68  A    between atoms: _167  and  _170
REMARK   69  A    between atoms: _170  and  _171
REMARK   70  A    between atoms: _174  and  _176
REMARK   71  A    between atoms: _176  and  _177
REMARK   72  A    between atoms: _179  and  _181
REMARK   73  A    between atoms: _181  and  _182
REMARK   74  A    between atoms: _181  and  _184
REMARK   75  A    between atoms: _184  and  _185
REMARK   76  A    between atoms: _185  and  _186
REMARK   77  A    between atoms: _186  and  _187
REMARK   78  A    between atoms: _196  and  _198
REMARK   79  A    between atoms: _198  and  _199
REMARK   80  A    between atoms: _198  and  _201
REMARK   81  A    between atoms: _201  and  _202
REMARK   82  A    between atoms: _207  and  _208
REMARK   83  A    between atoms: _211  and  _212
REMARK   84  A    between atoms: _217  and  _219
REMARK   85  A    between atoms: _219  and  _220
REMARK   86  A    between atoms: _219  and  _222
REMARK   87  A    between atoms: _222  and  _223
REMARK   88  A    between atoms: _226  and  _228
REMARK   89  A    between atoms: _228  and  _229
REMARK   90  A    between atoms: _228  and  _231
REMARK   91  A    between atoms: _231  and  _232
REMARK   92  A    between atoms: _237  and  _239
REMARK   93  A    between atoms: _239  and  _240
REMARK   94  A    between atoms: _239  and  _242
REMARK   95  A    between atoms: _242  and  _243
REMARK   96  A    between atoms: _253  and  _255
REMARK   97  A    between atoms: _255  and  _256
REMARK   98  A    between atoms: _255  and  _258
REMARK   99  A    between atoms: _258  and  _259
REMARK                            x       y       z     vdW  Elec       q    Type
REMARK                         _______ _______ _______ _____ _____    ______ ____
ROOT
ATOM      1  O   HOH     1       3.537   9.493   5.881  0.00  0.00    +0.000 OA
ENDROOT
TORSDOF 0
REMARK  Name = ../refined-set-2016/2y9g/2y9g_pocket.pdb
REMARK  99 active torsions:
REMARK  status: ('A' for Active; 'I' for Inactive)
REMARK    1  A    between atoms: _1  and  _3
REMARK    2  A    between atoms: _3  and  _4
REMARK    3  A    between atoms: _3  and  _6
REMARK    4  A    between atoms: _6  and  _7
REMARK    5  A    between atoms: _10  and  _12
REMARK    6  A    between atoms: _12  and  _13
REMARK    7  A    between atoms: _12  and  _15
REMARK    8  A    between atoms: _15  and  _16
REMARK    9  A    between atoms: _16  and  _17
REMARK   10  A    between atoms: _17  and  _18
REMARK   11  A    between atoms: _18  and  _19
REMARK   12  A    between atoms: _23  and  _25
REMARK   13  A    between atoms: _25  and  _26
REMARK   14  A    between atoms: _25  and  _28
REMARK   15  A    between atoms: _31  and  _33
REMARK   16  A    between atoms: _33  and  _34
REMARK   17  A    between atoms: _33  and  _36
REMARK   18  A    between atoms: _36  and  _37
REMARK   19  A    between atoms: _40  and  _42
REMARK   20  A    between atoms: _42  and  _43
REMARK   21  A    between atoms: _42  and  _45
REMARK   22  A    between atoms: _45  and  _46
REMARK   23  A    between atoms: _52  and  _54
REMARK   24  A    between atoms: _54  and  _55
REMARK   25  A    between atoms: _54  and  _57
REMARK   26  A    between atoms: _57  and  _58
REMARK   27  A    between atoms: _60  and  _62
REMARK   28  A    between atoms: _62  and  _63
REMARK   29  A    between atoms: _62  and  _65
REMARK   30  A    between atoms: _65  and  _66
REMARK   31  A    between atoms: _66  and  _67
REMARK   32  A    between atoms: _67  and  _68
REMARK   33  A    between atoms: _77  and  _79
REMARK   34  A    between atoms: _79  and  _80
REMARK   35  A    between atoms: _79  and  _82
REMARK   36  A    between atoms: _82  and  _83
REMARK   37  A    between atoms: _83  and  _84
REMARK   38  A    between atoms: _84  and  _85
REMARK   39  A    between atoms: _94  and  _96
REMARK   40  A    between atoms: _96  and  _97
REMARK   41  A    between atoms: _100  and  _102
REMARK   42  A    between atoms: _102  and  _103
REMARK   43  A    between atoms: _102  and  _105
REMARK   44  A    between atoms: _105  and  _106
REMARK   45  A    between atoms: _106  and  _107
REMARK   46  A    between atoms: _111  and  _112
REMARK   47  A    between atoms: _117  and  _119
REMARK   48  A    between atoms: _119  and  _120
REMARK   49  A    between atoms: _119  and  _122
REMARK   50  A    between atoms: _122  and  _123
REMARK   51  A    between atoms: _128  and  _129
REMARK   52  A    between atoms: _131  and  _133
REMARK   53  A    between atoms: _133  and  _134
REMARK   54  A    between atoms: _133  and  _136
REMARK   55  A    between atoms: _139  and  _141
REMARK   56  A    between atoms: _141  and  _142
REMARK   57  A    between atoms: _144  and  _146
REMARK   58  A    between atoms: _146  and  _147
REMARK   59  A    between atoms: _146  and  _149
REMARK   60  A    between atoms: _149  and  _150
REMARK   61  A    between atoms: _150  and  _151
REMARK   62  A    between atoms: _156  and  _158
REMARK   63  A    between atoms: _158  and  _159
REMARK   64  A    between atoms: _158  and  _161
REMARK   65  A    between atoms: _161  and  _162
REMARK   66  A    between atoms: _165  and  _167
REMARK   67  A    between atoms: _167  and  _168
REMARK   68  A    between atoms: _167  and  _170
REMARK   69  A    between atoms: _170  and  _171
REMARK   70  A    between atoms: _174  and  _176
REMARK   71  A    between atoms: _176  and  _177
REMARK   72  A    between atoms: _179  and  _181
REMARK   73  A    between atoms: _181  and  _182
REMARK   74  A    between atoms: _181  and  _184
REMARK   75  A    between atoms: _184  and  _185
REMARK   76  A    between atoms: _185  and  _186
REMARK   77  A    between atoms: _186  and  _187
REMARK   78  A    between atoms: _196  and  _198
REMARK   79  A    between atoms: _198  and  _199
REMARK   80  A    between atoms: _198  and  _201
REMARK   81  A    between atoms: _201  and  _202
REMARK   82  A    between atoms: _207  and  _208
REMARK   83  A    between atoms: _211  and  _212
REMARK   84  A    between atoms: _217  and  _219
REMARK   85  A    between atoms: _219  and  _220
REMARK   86  A    between atoms: _219  and  _222
REMARK   87  A    between atoms: _222  and  _223
REMARK   88  A    between atoms: _226  and  _228
REMARK   89  A    between atoms: _228  and  _229
REMARK   90  A    between atoms: _228  and  _231
REMARK   91  A    between atoms: _231  and  _232
REMARK   92  A    between atoms: _237  and  _239
REMARK   93  A    between atoms: _239  and  _240
REMARK   94  A    between atoms: _239  and  _242
REMARK   95  A    between atoms: _242  and  _243
REMARK   96  A    between atoms: _253  and  _255
REMARK   97  A    between atoms: _255  and  _256
REMARK   98  A    between atoms: _255  and  _258
REMARK   99  A    between atoms: _258  and  _259
REMARK                            x       y       z     vdW  Elec       q    Type
REMARK                         _______ _______ _______ _____ _____    ______ ____
ROOT
ATOM      1  O   HOH     1       2.515   5.554   5.298  0.00  0.00    +0.000 OA
ENDROOT
TORSDOF 0
REMARK  Name = ../refined-set-2016/2y9g/2y9g_pocket.pdb
REMARK  99 active torsions:
REMARK  status: ('A' for Active; 'I' for Inactive)
REMARK    1  A    between atoms: _1  and  _3
REMARK    2  A    between atoms: _3  and  _4
REMARK    3  A    between atoms: _3  and  _6
REMARK    4  A    between atoms: _6  and  _7
REMARK    5  A    between atoms: _10  and  _12
REMARK    6  A    between atoms: _12  and  _13
REMARK    7  A    between atoms: _12  and  _15
REMARK    8  A    between atoms: _15  and  _16
REMARK    9  A    between atoms: _16  and  _17
REMARK   10  A    between atoms: _17  and  _18
REMARK   11  A    between atoms: _18  and  _19
REMARK   12  A    between atoms: _23  and  _25
REMARK   13  A    between atoms: _25  and  _26
REMARK   14  A    between atoms: _25  and  _28
REMARK   15  A    between atoms: _31  and  _33
REMARK   16  A    between atoms: _33  and  _34
REMARK   17  A    between atoms: _33  and  _36
REMARK   18  A    between atoms: _36  and  _37
REMARK   19  A    between atoms: _40  and  _42
REMARK   20  A    between atoms: _42  and  _43
REMARK   21  A    between atoms: _42  and  _45
REMARK   22  A    between atoms: _45  and  _46
REMARK   23  A    between atoms: _52  and  _54
REMARK   24  A    between atoms: _54  and  _55
REMARK   25  A    between atoms: _54  and  _57
REMARK   26  A    between atoms: _57  and  _58
REMARK   27  A    between atoms: _60  and  _62
REMARK   28  A    between atoms: _62  and  _63
REMARK   29  A    between atoms: _62  and  _65
REMARK   30  A    between atoms: _65  and  _66
REMARK   31  A    between atoms: _66  and  _67
REMARK   32  A    between atoms: _67  and  _68
REMARK   33  A    between atoms: _77  and  _79
REMARK   34  A    between atoms: _79  and  _80
REMARK   35  A    between atoms: _79  and  _82
REMARK   36  A    between atoms: _82  and  _83
REMARK   37  A    between atoms: _83  and  _84
REMARK   38  A    between atoms: _84  and  _85
REMARK   39  A    between atoms: _94  and  _96
REMARK   40  A    between atoms: _96  and  _97
REMARK   41  A    between atoms: _100  and  _102
REMARK   42  A    between atoms: _102  and  _103
REMARK   43  A    between atoms: _102  and  _105
REMARK   44  A    between atoms: _105  and  _106
REMARK   45  A    between atoms: _106  and  _107
REMARK   46  A    between atoms: _111  and  _112
REMARK   47  A    between atoms: _117  and  _119
REMARK   48  A    between atoms: _119  and  _120
REMARK   49  A    between atoms: _119  and  _122
REMARK   50  A    between atoms: _122  and  _123
REMARK   51  A    between atoms: _128  and  _129
REMARK   52  A    between atoms: _131  and  _133
REMARK   53  A    between atoms: _133  and  _134
REMARK   54  A    between atoms: _133  and  _136
REMARK   55  A    between atoms: _139  and  _141
REMARK   56  A    between atoms: _141  and  _142
REMARK   57  A    between atoms: _144  and  _146
REMARK   58  A    between atoms: _146  and  _147
REMARK   59  A    between atoms: _146  and  _149
REMARK   60  A    between atoms: _149  and  _150
REMARK   61  A    between atoms: _150  and  _151
REMARK   62  A    between atoms: _156  and  _158
REMARK   63  A    between atoms: _158  and  _159
REMARK   64  A    between atoms: _158  and  _161
REMARK   65  A    between atoms: _161  and  _162
REMARK   66  A    between atoms: _165  and  _167
REMARK   67  A    between atoms: _167  and  _168
REMARK   68  A    between atoms: _167  and  _170
REMARK   69  A    between atoms: _170  and  _171
REMARK   70  A    between atoms: _174  and  _176
REMARK   71  A    between atoms: _176  and  _177
REMARK   72  A    between atoms: _179  and  _181
REMARK   73  A    between atoms: _181  and  _182
REMARK   74  A    between atoms: _181  and  _184
REMARK   75  A    between atoms: _184  and  _185
REMARK   76  A    between atoms: _185  and  _186
REMARK   77  A    between atoms: _186  and  _187
REMARK   78  A    between atoms: _196  and  _198
REMARK   79  A    between atoms: _198  and  _199
REMARK   80  A    between atoms: _198  and  _201
REMARK   81  A    between atoms: _201  and  _202
REMARK   82  A    between atoms: _207  and  _208
REMARK   83  A    between atoms: _211  and  _212
REMARK   84  A    between atoms: _217  and  _219
REMARK   85  A    between atoms: _219  and  _220
REMARK   86  A    between atoms: _219  and  _222
REMARK   87  A    between atoms: _222  and  _223
REMARK   88  A    between atoms: _226  and  _228
REMARK   89  A    between atoms: _228  and  _229
REMARK   90  A    between atoms: _228  and  _231
REMARK   91  A    between atoms: _231  and  _232
REMARK   92  A    between atoms: _237  and  _239
REMARK   93  A    between atoms: _239  and  _240
REMARK   94  A    between atoms: _239  and  _242
REMARK   95  A    between atoms: _242  and  _243
REMARK   96  A    between atoms: _253  and  _255
REMARK   97  A    between atoms: _255  and  _256
REMARK   98  A    between atoms: _255  and  _258
REMARK   99  A    between atoms: _258  and  _259
REMARK                            x       y       z     vdW  Elec       q    Type
REMARK                         _______ _______ _______ _____ _____    ______ ____
ROOT
ATOM      1  O   HOH     1       4.110  -0.890   3.064  0.00  0.00    +0.000 OA
ENDROOT
TORSDOF 0
REMARK  Name = ../refined-set-2016/2y9g/2y9g_pocket.pdb
REMARK  99 active torsions:
REMARK  status: ('A' for Active; 'I' for Inactive)
REMARK    1  A    between atoms: _1  and  _3
REMARK    2  A    between atoms: _3  and  _4
REMARK    3  A    between atoms: _3  and  _6
REMARK    4  A    between atoms: _6  and  _7
REMARK    5  A    between atoms: _10  and  _12
REMARK    6  A    between atoms: _12  and  _13
REMARK    7  A    between atoms: _12  and  _15
REMARK    8  A    between atoms: _15  and  _16
REMARK    9  A    between atoms: _16  and  _17
REMARK   10  A    between atoms: _17  and  _18
REMARK   11  A    between atoms: _18  and  _19
REMARK   12  A    between atoms: _23  and  _25
REMARK   13  A    between atoms: _25  and  _26
REMARK   14  A    between atoms: _25  and  _28
REMARK   15  A    between atoms: _31  and  _33
REMARK   16  A    between atoms: _33  and  _34
REMARK   17  A    between atoms: _33  and  _36
REMARK   18  A    between atoms: _36  and  _37
REMARK   19  A    between atoms: _40  and  _42
REMARK   20  A    between atoms: _42  and  _43
REMARK   21  A    between atoms: _42  and  _45
REMARK   22  A    between atoms: _45  and  _46
REMARK   23  A    between atoms: _52  and  _54
REMARK   24  A    between atoms: _54  and  _55
REMARK   25  A    between atoms: _54  and  _57
REMARK   26  A    between atoms: _57  and  _58
REMARK   27  A    between atoms: _60  and  _62
REMARK   28  A    between atoms: _62  and  _63
REMARK   29  A    between atoms: _62  and  _65
REMARK   30  A    between atoms: _65  and  _66
REMARK   31  A    between atoms: _66  and  _67
REMARK   32  A    between atoms: _67  and  _68
REMARK   33  A    between atoms: _77  and  _79
REMARK   34  A    between atoms: _79  and  _80
REMARK   35  A    between atoms: _79  and  _82
REMARK   36  A    between atoms: _82  and  _83
REMARK   37  A    between atoms: _83  and  _84
REMARK   38  A    between atoms: _84  and  _85
REMARK   39  A    between atoms: _94  and  _96
REMARK   40  A    between atoms: _96  and  _97
REMARK   41  A    between atoms: _100  and  _102
REMARK   42  A    between atoms: _102  and  _103
REMARK   43  A    between atoms: _102  and  _105
REMARK   44  A    between atoms: _105  and  _106
REMARK   45  A    between atoms: _106  and  _107
REMARK   46  A    between atoms: _111  and  _112
REMARK   47  A    between atoms: _117  and  _119
REMARK   48  A    between atoms: _119  and  _120
REMARK   49  A    between atoms: _119  and  _122
REMARK   50  A    between atoms: _122  and  _123
REMARK   51  A    between atoms: _128  and  _129
REMARK   52  A    between atoms: _131  and  _133
REMARK   53  A    between atoms: _133  and  _134
REMARK   54  A    between atoms: _133  and  _136
REMARK   55  A    between atoms: _139  and  _141
REMARK   56  A    between atoms: _141  and  _142
REMARK   57  A    between atoms: _144  and  _146
REMARK   58  A    between atoms: _146  and  _147
REMARK   59  A    between atoms: _146  and  _149
REMARK   60  A    between atoms: _149  and  _150
REMARK   61  A    between atoms: _150  and  _151
REMARK   62  A    between atoms: _156  and  _158
REMARK   63  A    between atoms: _158  and  _159
REMARK   64  A    between atoms: _158  and  _161
REMARK   65  A    between atoms: _161  and  _162
REMARK   66  A    between atoms: _165  and  _167
REMARK   67  A    between atoms: _167  and  _168
REMARK   68  A    between atoms: _167  and  _170
REMARK   69  A    between atoms: _170  and  _171
REMARK   70  A    between atoms: _174  and  _176
REMARK   71  A    between atoms: _176  and  _177
REMARK   72  A    between atoms: _179  and  _181
REMARK   73  A    between atoms: _181  and  _182
REMARK   74  A    between atoms: _181  and  _184
REMARK   75  A    between atoms: _184  and  _185
REMARK   76  A    between atoms: _185  and  _186
REMARK   77  A    between atoms: _186  and  _187
REMARK   78  A    between atoms: _196  and  _198
REMARK   79  A    between atoms: _198  and  _199
REMARK   80  A    between atoms: _198  and  _201
REMARK   81  A    between atoms: _201  and  _202
REMARK   82  A    between atoms: _207  and  _208
REMARK   83  A    between atoms: _211  and  _212
REMARK   84  A    between atoms: _217  and  _219
REMARK   85  A    between atoms: _219  and  _220
REMARK   86  A    between atoms: _219  and  _222
REMARK   87  A    between atoms: _222  and  _223
REMARK   88  A    between atoms: _226  and  _228
REMARK   89  A    between atoms: _228  and  _229
REMARK   90  A    between atoms: _228  and  _231
REMARK   91  A    between atoms: _231  and  _232
REMARK   92  A    between atoms: _237  and  _239
REMARK   93  A    between atoms: _239  and  _240
REMARK   94  A    between atoms: _239  and  _242
REMARK   95  A    between atoms: _242  and  _243
REMARK   96  A    between atoms: _253  and  _255
REMARK   97  A    between atoms: _255  and  _256
REMARK   98  A    between atoms: _255  and  _258
REMARK   99  A    between atoms: _258  and  _259
REMARK                            x       y       z     vdW  Elec       q    Type
REMARK                         _______ _______ _______ _____ _____    ______ ____
ROOT
ATOM      1  O   HOH     1       7.241   0.832  -3.643  0.00  0.00    +0.000 OA
ENDROOT
TORSDOF 0
REMARK  Name = ../refined-set-2016/2y9g/2y9g_pocket.pdb
REMARK  99 active torsions:
REMARK  status: ('A' for Active; 'I' for Inactive)
REMARK    1  A    between atoms: _1  and  _3
REMARK    2  A    between atoms: _3  and  _4
REMARK    3  A    between atoms: _3  and  _6
REMARK    4  A    between atoms: _6  and  _7
REMARK    5  A    between atoms: _10  and  _12
REMARK    6  A    between atoms: _12  and  _13
REMARK    7  A    between atoms: _12  and  _15
REMARK    8  A    between atoms: _15  and  _16
REMARK    9  A    between atoms: _16  and  _17
REMARK   10  A    between atoms: _17  and  _18
REMARK   11  A    between atoms: _18  and  _19
REMARK   12  A    between atoms: _23  and  _25
REMARK   13  A    between atoms: _25  and  _26
REMARK   14  A    between atoms: _25  and  _28
REMARK   15  A    between atoms: _31  and  _33
REMARK   16  A    between atoms: _33  and  _34
REMARK   17  A    between atoms: _33  and  _36
REMARK   18  A    between atoms: _36  and  _37
REMARK   19  A    between atoms: _40  and  _42
REMARK   20  A    between atoms: _42  and  _43
REMARK   21  A    between atoms: _42  and  _45
REMARK   22  A    between atoms: _45  and  _46
REMARK   23  A    between atoms: _52  and  _54
REMARK   24  A    between atoms: _54  and  _55
REMARK   25  A    between atoms: _54  and  _57
REMARK   26  A    between atoms: _57  and  _58
REMARK   27  A    between atoms: _60  and  _62
REMARK   28  A    between atoms: _62  and  _63
REMARK   29  A    between atoms: _62  and  _65
REMARK   30  A    between atoms: _65  and  _66
REMARK   31  A    between atoms: _66  and  _67
REMARK   32  A    between atoms: _67  and  _68
REMARK   33  A    between atoms: _77  and  _79
REMARK   34  A    between atoms: _79  and  _80
REMARK   35  A    between atoms: _79  and  _82
REMARK   36  A    between atoms: _82  and  _83
REMARK   37  A    between atoms: _83  and  _84
REMARK   38  A    between atoms: _84  and  _85
REMARK   39  A    between atoms: _94  and  _96
REMARK   40  A    between atoms: _96  and  _97
REMARK   41  A    between atoms: _100  and  _102
REMARK   42  A    between atoms: _102  and  _103
REMARK   43  A    between atoms: _102  and  _105
REMARK   44  A    between atoms: _105  and  _106
REMARK   45  A    between atoms: _106  and  _107
REMARK   46  A    between atoms: _111  and  _112
REMARK   47  A    between atoms: _117  and  _119
REMARK   48  A    between atoms: _119  and  _120
REMARK   49  A    between atoms: _119  and  _122
REMARK   50  A    between atoms: _122  and  _123
REMARK   51  A    between atoms: _128  and  _129
REMARK   52  A    between atoms: _131  and  _133
REMARK   53  A    between atoms: _133  and  _134
REMARK   54  A    between atoms: _133  and  _136
REMARK   55  A    between atoms: _139  and  _141
REMARK   56  A    between atoms: _141  and  _142
REMARK   57  A    between atoms: _144  and  _146
REMARK   58  A    between atoms: _146  and  _147
REMARK   59  A    between atoms: _146  and  _149
REMARK   60  A    between atoms: _149  and  _150
REMARK   61  A    between atoms: _150  and  _151
REMARK   62  A    between atoms: _156  and  _158
REMARK   63  A    between atoms: _158  and  _159
REMARK   64  A    between atoms: _158  and  _161
REMARK   65  A    between atoms: _161  and  _162
REMARK   66  A    between atoms: _165  and  _167
REMARK   67  A    between atoms: _167  and  _168
REMARK   68  A    between atoms: _167  and  _170
REMARK   69  A    between atoms: _170  and  _171
REMARK   70  A    between atoms: _174  and  _176
REMARK   71  A    between atoms: _176  and  _177
REMARK   72  A    between atoms: _179  and  _181
REMARK   73  A    between atoms: _181  and  _182
REMARK   74  A    between atoms: _181  and  _184
REMARK   75  A    between atoms: _184  and  _185
REMARK   76  A    between atoms: _185  and  _186
REMARK   77  A    between atoms: _186  and  _187
REMARK   78  A    between atoms: _196  and  _198
REMARK   79  A    between atoms: _198  and  _199
REMARK   80  A    between atoms: _198  and  _201
REMARK   81  A    between atoms: _201  and  _202
REMARK   82  A    between atoms: _207  and  _208
REMARK   83  A    between atoms: _211  and  _212
REMARK   84  A    between atoms: _217  and  _219
REMARK   85  A    between atoms: _219  and  _220
REMARK   86  A    between atoms: _219  and  _222
REMARK   87  A    between atoms: _222  and  _223
REMARK   88  A    between atoms: _226  and  _228
REMARK   89  A    between atoms: _228  and  _229
REMARK   90  A    between atoms: _228  and  _231
REMARK   91  A    between atoms: _231  and  _232
REMARK   92  A    between atoms: _237  and  _239
REMARK   93  A    between atoms: _239  and  _240
REMARK   94  A    between atoms: _239  and  _242
REMARK   95  A    between atoms: _242  and  _243
REMARK   96  A    between atoms: _253  and  _255
REMARK   97  A    between atoms: _255  and  _256
REMARK   98  A    between atoms: _255  and  _258
REMARK   99  A    between atoms: _258  and  _259
REMARK                            x       y       z     vdW  Elec       q    Type
REMARK                         _______ _______ _______ _____ _____    ______ ____
ROOT
ATOM      1  O   HOH     1      10.544   3.273  -4.934  0.00  0.00    +0.000 OA
ENDROOT
TORSDOF 0
REMARK  Name = ../refined-set-2016/2y9g/2y9g_pocket.pdb
REMARK  99 active torsions:
REMARK  status: ('A' for Active; 'I' for Inactive)
REMARK    1  A    between atoms: _1  and  _3
REMARK    2  A    between atoms: _3  and  _4
REMARK    3  A    between atoms: _3  and  _6
REMARK    4  A    between atoms: _6  and  _7
REMARK    5  A    between atoms: _10  and  _12
REMARK    6  A    between atoms: _12  and  _13
REMARK    7  A    between atoms: _12  and  _15
REMARK    8  A    between atoms: _15  and  _16
REMARK    9  A    between atoms: _16  and  _17
REMARK   10  A    between atoms: _17  and  _18
REMARK   11  A    between atoms: _18  and  _19
REMARK   12  A    between atoms: _23  and  _25
REMARK   13  A    between atoms: _25  and  _26
REMARK   14  A    between atoms: _25  and  _28
REMARK   15  A    between atoms: _31  and  _33
REMARK   16  A    between atoms: _33  and  _34
REMARK   17  A    between atoms: _33  and  _36
REMARK   18  A    between atoms: _36  and  _37
REMARK   19  A    between atoms: _40  and  _42
REMARK   20  A    between atoms: _42  and  _43
REMARK   21  A    between atoms: _42  and  _45
REMARK   22  A    between atoms: _45  and  _46
REMARK   23  A    between atoms: _52  and  _54
REMARK   24  A    between atoms: _54  and  _55
REMARK   25  A    between atoms: _54  and  _57
REMARK   26  A    between atoms: _57  and  _58
REMARK   27  A    between atoms: _60  and  _62
REMARK   28  A    between atoms: _62  and  _63
REMARK   29  A    between atoms: _62  and  _65
REMARK   30  A    between atoms: _65  and  _66
REMARK   31  A    between atoms: _66  and  _67
REMARK   32  A    between atoms: _67  and  _68
REMARK   33  A    between atoms: _77  and  _79
REMARK   34  A    between atoms: _79  and  _80
REMARK   35  A    between atoms: _79  and  _82
REMARK   36  A    between atoms: _82  and  _83
REMARK   37  A    between atoms: _83  and  _84
REMARK   38  A    between atoms: _84  and  _85
REMARK   39  A    between atoms: _94  and  _96
REMARK   40  A    between atoms: _96  and  _97
REMARK   41  A    between atoms: _100  and  _102
REMARK   42  A    between atoms: _102  and  _103
REMARK   43  A    between atoms: _102  and  _105
REMARK   44  A    between atoms: _105  and  _106
REMARK   45  A    between atoms: _106  and  _107
REMARK   46  A    between atoms: _111  and  _112
REMARK   47  A    between atoms: _117  and  _119
REMARK   48  A    between atoms: _119  and  _120
REMARK   49  A    between atoms: _119  and  _122
REMARK   50  A    between atoms: _122  and  _123
REMARK   51  A    between atoms: _128  and  _129
REMARK   52  A    between atoms: _131  and  _133
REMARK   53  A    between atoms: _133  and  _134
REMARK   54  A    between atoms: _133  and  _136
REMARK   55  A    between atoms: _139  and  _141
REMARK   56  A    between atoms: _141  and  _142
REMARK   57  A    between atoms: _144  and  _146
REMARK   58  A    between atoms: _146  and  _147
REMARK   59  A    between atoms: _146  and  _149
REMARK   60  A    between atoms: _149  and  _150
REMARK   61  A    between atoms: _150  and  _151
REMARK   62  A    between atoms: _156  and  _158
REMARK   63  A    between atoms: _158  and  _159
REMARK   64  A    between atoms: _158  and  _161
REMARK   65  A    between atoms: _161  and  _162
REMARK   66  A    between atoms: _165  and  _167
REMARK   67  A    between atoms: _167  and  _168
REMARK   68  A    between atoms: _167  and  _170
REMARK   69  A    between atoms: _170  and  _171
REMARK   70  A    between atoms: _174  and  _176
REMARK   71  A    between atoms: _176  and  _177
REMARK   72  A    between atoms: _179  and  _181
REMARK   73  A    between atoms: _181  and  _182
REMARK   74  A    between atoms: _181  and  _184
REMARK   75  A    between atoms: _184  and  _185
REMARK   76  A    between atoms: _185  and  _186
REMARK   77  A    between atoms: _186  and  _187
REMARK   78  A    between atoms: _196  and  _198
REMARK   79  A    between atoms: _198  and  _199
REMARK   80  A    between atoms: _198  and  _201
REMARK   81  A    between atoms: _201  and  _202
REMARK   82  A    between atoms: _207  and  _208
REMARK   83  A    between atoms: _211  and  _212
REMARK   84  A    between atoms: _217  and  _219
REMARK   85  A    between atoms: _219  and  _220
REMARK   86  A    between atoms: _219  and  _222
REMARK   87  A    between atoms: _222  and  _223
REMARK   88  A    between atoms: _226  and  _228
REMARK   89  A    between atoms: _228  and  _229
REMARK   90  A    between atoms: _228  and  _231
REMARK   91  A    between atoms: _231  and  _232
REMARK   92  A    between atoms: _237  and  _239
REMARK   93  A    between atoms: _239  and  _240
REMARK   94  A    between atoms: _239  and  _242
REMARK   95  A    between atoms: _242  and  _243
REMARK   96  A    between atoms: _253  and  _255
REMARK   97  A    between atoms: _255  and  _256
REMARK   98  A    between atoms: _255  and  _258
REMARK   99  A    between atoms: _258  and  _259
REMARK                            x       y       z     vdW  Elec       q    Type
REMARK                         _______ _______ _______ _____ _____    ______ ____
ROOT
ATOM      1  O   HOH     1       4.104  -4.116  -1.627  0.00  0.00    +0.000 OA
ENDROOT
TORSDOF 0
REMARK  Name = ../refined-set-2016/2y9g/2y9g_pocket.pdb
REMARK  99 active torsions:
REMARK  status: ('A' for Active; 'I' for Inactive)
REMARK    1  A    between atoms: _1  and  _3
REMARK    2  A    between atoms: _3  and  _4
REMARK    3  A    between atoms: _3  and  _6
REMARK    4  A    between atoms: _6  and  _7
REMARK    5  A    between atoms: _10  and  _12
REMARK    6  A    between atoms: _12  and  _13
REMARK    7  A    between atoms: _12  and  _15
REMARK    8  A    between atoms: _15  and  _16
REMARK    9  A    between atoms: _16  and  _17
REMARK   10  A    between atoms: _17  and  _18
REMARK   11  A    between atoms: _18  and  _19
REMARK   12  A    between atoms: _23  and  _25
REMARK   13  A    between atoms: _25  and  _26
REMARK   14  A    between atoms: _25  and  _28
REMARK   15  A    between atoms: _31  and  _33
REMARK   16  A    between atoms: _33  and  _34
REMARK   17  A    between atoms: _33  and  _36
REMARK   18  A    between atoms: _36  and  _37
REMARK   19  A    between atoms: _40  and  _42
REMARK   20  A    between atoms: _42  and  _43
REMARK   21  A    between atoms: _42  and  _45
REMARK   22  A    between atoms: _45  and  _46
REMARK   23  A    between atoms: _52  and  _54
REMARK   24  A    between atoms: _54  and  _55
REMARK   25  A    between atoms: _54  and  _57
REMARK   26  A    between atoms: _57  and  _58
REMARK   27  A    between atoms: _60  and  _62
REMARK   28  A    between atoms: _62  and  _63
REMARK   29  A    between atoms: _62  and  _65
REMARK   30  A    between atoms: _65  and  _66
REMARK   31  A    between atoms: _66  and  _67
REMARK   32  A    between atoms: _67  and  _68
REMARK   33  A    between atoms: _77  and  _79
REMARK   34  A    between atoms: _79  and  _80
REMARK   35  A    between atoms: _79  and  _82
REMARK   36  A    between atoms: _82  and  _83
REMARK   37  A    between atoms: _83  and  _84
REMARK   38  A    between atoms: _84  and  _85
REMARK   39  A    between atoms: _94  and  _96
REMARK   40  A    between atoms: _96  and  _97
REMARK   41  A    between atoms: _100  and  _102
REMARK   42  A    between atoms: _102  and  _103
REMARK   43  A    between atoms: _102  and  _105
REMARK   44  A    between atoms: _105  and  _106
REMARK   45  A    between atoms: _106  and  _107
REMARK   46  A    between atoms: _111  and  _112
REMARK   47  A    between atoms: _117  and  _119
REMARK   48  A    between atoms: _119  and  _120
REMARK   49  A    between atoms: _119  and  _122
REMARK   50  A    between atoms: _122  and  _123
REMARK   51  A    between atoms: _128  and  _129
REMARK   52  A    between atoms: _131  and  _133
REMARK   53  A    between atoms: _133  and  _134
REMARK   54  A    between atoms: _133  and  _136
REMARK   55  A    between atoms: _139  and  _141
REMARK   56  A    between atoms: _141  and  _142
REMARK   57  A    between atoms: _144  and  _146
REMARK   58  A    between atoms: _146  and  _147
REMARK   59  A    between atoms: _146  and  _149
REMARK   60  A    between atoms: _149  and  _150
REMARK   61  A    between atoms: _150  and  _151
REMARK   62  A    between atoms: _156  and  _158
REMARK   63  A    between atoms: _158  and  _159
REMARK   64  A    between atoms: _158  and  _161
REMARK   65  A    between atoms: _161  and  _162
REMARK   66  A    between atoms: _165  and  _167
REMARK   67  A    between atoms: _167  and  _168
REMARK   68  A    between atoms: _167  and  _170
REMARK   69  A    between atoms: _170  and  _171
REMARK   70  A    between atoms: _174  and  _176
REMARK   71  A    between atoms: _176  and  _177
REMARK   72  A    between atoms: _179  and  _181
REMARK   73  A    between atoms: _181  and  _182
REMARK   74  A    between atoms: _181  and  _184
REMARK   75  A    between atoms: _184  and  _185
REMARK   76  A    between atoms: _185  and  _186
REMARK   77  A    between atoms: _186  and  _187
REMARK   78  A    between atoms: _196  and  _198
REMARK   79  A    between atoms: _198  and  _199
REMARK   80  A    between atoms: _198  and  _201
REMARK   81  A    between atoms: _201  and  _202
REMARK   82  A    between atoms: _207  and  _208
REMARK   83  A    between atoms: _211  and  _212
REMARK   84  A    between atoms: _217  and  _219
REMARK   85  A    between atoms: _219  and  _220
REMARK   86  A    between atoms: _219  and  _222
REMARK   87  A    between atoms: _222  and  _223
REMARK   88  A    between atoms: _226  and  _228
REMARK   89  A    between atoms: _228  and  _229
REMARK   90  A    between atoms: _228  and  _231
REMARK   91  A    between atoms: _231  and  _232
REMARK   92  A    between atoms: _237  and  _239
REMARK   93  A    between atoms: _239  and  _240
REMARK   94  A    between atoms: _239  and  _242
REMARK   95  A    between atoms: _242  and  _243
REMARK   96  A    between atoms: _253  and  _255
REMARK   97  A    between atoms: _255  and  _256
REMARK   98  A    between atoms: _255  and  _258
REMARK   99  A    between atoms: _258  and  _259
REMARK                            x       y       z     vdW  Elec       q    Type
REMARK                         _______ _______ _______ _____ _____    ______ ____
ROOT
ATOM      1  O   HOH     1      -1.044  -0.408  -2.252  0.00  0.00    +0.000 OA
ENDROOT
TORSDOF 0
REMARK  Name = ../refined-set-2016/2y9g/2y9g_pocket.pdb
REMARK  99 active torsions:
REMARK  status: ('A' for Active; 'I' for Inactive)
REMARK    1  A    between atoms: _1  and  _3
REMARK    2  A    between atoms: _3  and  _4
REMARK    3  A    between atoms: _3  and  _6
REMARK    4  A    between atoms: _6  and  _7
REMARK    5  A    between atoms: _10  and  _12
REMARK    6  A    between atoms: _12  and  _13
REMARK    7  A    between atoms: _12  and  _15
REMARK    8  A    between atoms: _15  and  _16
REMARK    9  A    between atoms: _16  and  _17
REMARK   10  A    between atoms: _17  and  _18
REMARK   11  A    between atoms: _18  and  _19
REMARK   12  A    between atoms: _23  and  _25
REMARK   13  A    between atoms: _25  and  _26
REMARK   14  A    between atoms: _25  and  _28
REMARK   15  A    between atoms: _31  and  _33
REMARK   16  A    between atoms: _33  and  _34
REMARK   17  A    between atoms: _33  and  _36
REMARK   18  A    between atoms: _36  and  _37
REMARK   19  A    between atoms: _40  and  _42
REMARK   20  A    between atoms: _42  and  _43
REMARK   21  A    between atoms: _42  and  _45
REMARK   22  A    between atoms: _45  and  _46
REMARK   23  A    between atoms: _52  and  _54
REMARK   24  A    between atoms: _54  and  _55
REMARK   25  A    between atoms: _54  and  _57
REMARK   26  A    between atoms: _57  and  _58
REMARK   27  A    between atoms: _60  and  _62
REMARK   28  A    between atoms: _62  and  _63
REMARK   29  A    between atoms: _62  and  _65
REMARK   30  A    between atoms: _65  and  _66
REMARK   31  A    between atoms: _66  and  _67
REMARK   32  A    between atoms: _67  and  _68
REMARK   33  A    between atoms: _77  and  _79
REMARK   34  A    between atoms: _79  and  _80
REMARK   35  A    between atoms: _79  and  _82
REMARK   36  A    between atoms: _82  and  _83
REMARK   37  A    between atoms: _83  and  _84
REMARK   38  A    between atoms: _84  and  _85
REMARK   39  A    between atoms: _94  and  _96
REMARK   40  A    between atoms: _96  and  _97
REMARK   41  A    between atoms: _100  and  _102
REMARK   42  A    between atoms: _102  and  _103
REMARK   43  A    between atoms: _102  and  _105
REMARK   44  A    between atoms: _105  and  _106
REMARK   45  A    between atoms: _106  and  _107
REMARK   46  A    between atoms: _111  and  _112
REMARK   47  A    between atoms: _117  and  _119
REMARK   48  A    between atoms: _119  and  _120
REMARK   49  A    between atoms: _119  and  _122
REMARK   50  A    between atoms: _122  and  _123
REMARK   51  A    between atoms: _128  and  _129
REMARK   52  A    between atoms: _131  and  _133
REMARK   53  A    between atoms: _133  and  _134
REMARK   54  A    between atoms: _133  and  _136
REMARK   55  A    between atoms: _139  and  _141
REMARK   56  A    between atoms: _141  and  _142
REMARK   57  A    between atoms: _144  and  _146
REMARK   58  A    between atoms: _146  and  _147
REMARK   59  A    between atoms: _146  and  _149
REMARK   60  A    between atoms: _149  and  _150
REMARK   61  A    between atoms: _150  and  _151
REMARK   62  A    between atoms: _156  and  _158
REMARK   63  A    between atoms: _158  and  _159
REMARK   64  A    between atoms: _158  and  _161
REMARK   65  A    between atoms: _161  and  _162
REMARK   66  A    between atoms: _165  and  _167
REMARK   67  A    between atoms: _167  and  _168
REMARK   68  A    between atoms: _167  and  _170
REMARK   69  A    between atoms: _170  and  _171
REMARK   70  A    between atoms: _174  and  _176
REMARK   71  A    between atoms: _176  and  _177
REMARK   72  A    between atoms: _179  and  _181
REMARK   73  A    between atoms: _181  and  _182
REMARK   74  A    between atoms: _181  and  _184
REMARK   75  A    between atoms: _184  and  _185
REMARK   76  A    between atoms: _185  and  _186
REMARK   77  A    between atoms: _186  and  _187
REMARK   78  A    between atoms: _196  and  _198
REMARK   79  A    between atoms: _198  and  _199
REMARK   80  A    between atoms: _198  and  _201
REMARK   81  A    between atoms: _201  and  _202
REMARK   82  A    between atoms: _207  and  _208
REMARK   83  A    between atoms: _211  and  _212
REMARK   84  A    between atoms: _217  and  _219
REMARK   85  A    between atoms: _219  and  _220
REMARK   86  A    between atoms: _219  and  _222
REMARK   87  A    between atoms: _222  and  _223
REMARK   88  A    between atoms: _226  and  _228
REMARK   89  A    between atoms: _228  and  _229
REMARK   90  A    between atoms: _228  and  _231
REMARK   91  A    between atoms: _231  and  _232
REMARK   92  A    between atoms: _237  and  _239
REMARK   93  A    between atoms: _239  and  _240
REMARK   94  A    between atoms: _239  and  _242
REMARK   95  A    between atoms: _242  and  _243
REMARK   96  A    between atoms: _253  and  _255
REMARK   97  A    between atoms: _255  and  _256
REMARK   98  A    between atoms: _255  and  _258
REMARK   99  A    between atoms: _258  and  _259
REMARK                            x       y       z     vdW  Elec       q    Type
REMARK                         _______ _______ _______ _____ _____    ______ ____
ROOT
ATOM      1  O   HOH     1       3.376  -1.681  -1.338  0.00  0.00    +0.000 OA
ENDROOT
TORSDOF 0
REMARK  Name = ../refined-set-2016/2y9g/2y9g_pocket.pdb
REMARK  99 active torsions:
REMARK  status: ('A' for Active; 'I' for Inactive)
REMARK    1  A    between atoms: _1  and  _3
REMARK    2  A    between atoms: _3  and  _4
REMARK    3  A    between atoms: _3  and  _6
REMARK    4  A    between atoms: _6  and  _7
REMARK    5  A    between atoms: _10  and  _12
REMARK    6  A    between atoms: _12  and  _13
REMARK    7  A    between atoms: _12  and  _15
REMARK    8  A    between atoms: _15  and  _16
REMARK    9  A    between atoms: _16  and  _17
REMARK   10  A    between atoms: _17  and  _18
REMARK   11  A    between atoms: _18  and  _19
REMARK   12  A    between atoms: _23  and  _25
REMARK   13  A    between atoms: _25  and  _26
REMARK   14  A    between atoms: _25  and  _28
REMARK   15  A    between atoms: _31  and  _33
REMARK   16  A    between atoms: _33  and  _34
REMARK   17  A    between atoms: _33  and  _36
REMARK   18  A    between atoms: _36  and  _37
REMARK   19  A    between atoms: _40  and  _42
REMARK   20  A    between atoms: _42  and  _43
REMARK   21  A    between atoms: _42  and  _45
REMARK   22  A    between atoms: _45  and  _46
REMARK   23  A    between atoms: _52  and  _54
REMARK   24  A    between atoms: _54  and  _55
REMARK   25  A    between atoms: _54  and  _57
REMARK   26  A    between atoms: _57  and  _58
REMARK   27  A    between atoms: _60  and  _62
REMARK   28  A    between atoms: _62  and  _63
REMARK   29  A    between atoms: _62  and  _65
REMARK   30  A    between atoms: _65  and  _66
REMARK   31  A    between atoms: _66  and  _67
REMARK   32  A    between atoms: _67  and  _68
REMARK   33  A    between atoms: _77  and  _79
REMARK   34  A    between atoms: _79  and  _80
REMARK   35  A    between atoms: _79  and  _82
REMARK   36  A    between atoms: _82  and  _83
REMARK   37  A    between atoms: _83  and  _84
REMARK   38  A    between atoms: _84  and  _85
REMARK   39  A    between atoms: _94  and  _96
REMARK   40  A    between atoms: _96  and  _97
REMARK   41  A    between atoms: _100  and  _102
REMARK   42  A    between atoms: _102  and  _103
REMARK   43  A    between atoms: _102  and  _105
REMARK   44  A    between atoms: _105  and  _106
REMARK   45  A    between atoms: _106  and  _107
REMARK   46  A    between atoms: _111  and  _112
REMARK   47  A    between atoms: _117  and  _119
REMARK   48  A    between atoms: _119  and  _120
REMARK   49  A    between atoms: _119  and  _122
REMARK   50  A    between atoms: _122  and  _123
REMARK   51  A    between atoms: _128  and  _129
REMARK   52  A    between atoms: _131  and  _133
REMARK   53  A    between atoms: _133  and  _134
REMARK   54  A    between atoms: _133  and  _136
REMARK   55  A    between atoms: _139  and  _141
REMARK   56  A    between atoms: _141  and  _142
REMARK   57  A    between atoms: _144  and  _146
REMARK   58  A    between atoms: _146  and  _147
REMARK   59  A    between atoms: _146  and  _149
REMARK   60  A    between atoms: _149  and  _150
REMARK   61  A    between atoms: _150  and  _151
REMARK   62  A    between atoms: _156  and  _158
REMARK   63  A    between atoms: _158  and  _159
REMARK   64  A    between atoms: _158  and  _161
REMARK   65  A    between atoms: _161  and  _162
REMARK   66  A    between atoms: _165  and  _167
REMARK   67  A    between atoms: _167  and  _168
REMARK   68  A    between atoms: _167  and  _170
REMARK   69  A    between atoms: _170  and  _171
REMARK   70  A    between atoms: _174  and  _176
REMARK   71  A    between atoms: _176  and  _177
REMARK   72  A    between atoms: _179  and  _181
REMARK   73  A    between atoms: _181  and  _182
REMARK   74  A    between atoms: _181  and  _184
REMARK   75  A    between atoms: _184  and  _185
REMARK   76  A    between atoms: _185  and  _186
REMARK   77  A    between atoms: _186  and  _187
REMARK   78  A    between atoms: _196  and  _198
REMARK   79  A    between atoms: _198  and  _199
REMARK   80  A    between atoms: _198  and  _201
REMARK   81  A    between atoms: _201  and  _202
REMARK   82  A    between atoms: _207  and  _208
REMARK   83  A    between atoms: _211  and  _212
REMARK   84  A    between atoms: _217  and  _219
REMARK   85  A    between atoms: _219  and  _220
REMARK   86  A    between atoms: _219  and  _222
REMARK   87  A    between atoms: _222  and  _223
REMARK   88  A    between atoms: _226  and  _228
REMARK   89  A    between atoms: _228  and  _229
REMARK   90  A    between atoms: _228  and  _231
REMARK   91  A    between atoms: _231  and  _232
REMARK   92  A    between atoms: _237  and  _239
REMARK   93  A    between atoms: _239  and  _240
REMARK   94  A    between atoms: _239  and  _242
REMARK   95  A    between atoms: _242  and  _243
REMARK   96  A    between atoms: _253  and  _255
REMARK   97  A    between atoms: _255  and  _256
REMARK   98  A    between atoms: _255  and  _258
REMARK   99  A    between atoms: _258  and  _259
REMARK                            x       y       z     vdW  Elec       q    Type
REMARK                         _______ _______ _______ _____ _____    ______ ____
ROOT
ATOM      1  O   HOH     1       0.323   9.806  -5.999  0.00  0.00    +0.000 OA
ENDROOT
TORSDOF 0
REMARK  Name = ../refined-set-2016/2y9g/2y9g_pocket.pdb
REMARK  99 active torsions:
REMARK  status: ('A' for Active; 'I' for Inactive)
REMARK    1  A    between atoms: _1  and  _3
REMARK    2  A    between atoms: _3  and  _4
REMARK    3  A    between atoms: _3  and  _6
REMARK    4  A    between atoms: _6  and  _7
REMARK    5  A    between atoms: _10  and  _12
REMARK    6  A    between atoms: _12  and  _13
REMARK    7  A    between atoms: _12  and  _15
REMARK    8  A    between atoms: _15  and  _16
REMARK    9  A    between atoms: _16  and  _17
REMARK   10  A    between atoms: _17  and  _18
REMARK   11  A    between atoms: _18  and  _19
REMARK   12  A    between atoms: _23  and  _25
REMARK   13  A    between atoms: _25  and  _26
REMARK   14  A    between atoms: _25  and  _28
REMARK   15  A    between atoms: _31  and  _33
REMARK   16  A    between atoms: _33  and  _34
REMARK   17  A    between atoms: _33  and  _36
REMARK   18  A    between atoms: _36  and  _37
REMARK   19  A    between atoms: _40  and  _42
REMARK   20  A    between atoms: _42  and  _43
REMARK   21  A    between atoms: _42  and  _45
REMARK   22  A    between atoms: _45  and  _46
REMARK   23  A    between atoms: _52  and  _54
REMARK   24  A    between atoms: _54  and  _55
REMARK   25  A    between atoms: _54  and  _57
REMARK   26  A    between atoms: _57  and  _58
REMARK   27  A    between atoms: _60  and  _62
REMARK   28  A    between atoms: _62  and  _63
REMARK   29  A    between atoms: _62  and  _65
REMARK   30  A    between atoms: _65  and  _66
REMARK   31  A    between atoms: _66  and  _67
REMARK   32  A    between atoms: _67  and  _68
REMARK   33  A    between atoms: _77  and  _79
REMARK   34  A    between atoms: _79  and  _80
REMARK   35  A    between atoms: _79  and  _82
REMARK   36  A    between atoms: _82  and  _83
REMARK   37  A    between atoms: _83  and  _84
REMARK   38  A    between atoms: _84  and  _85
REMARK   39  A    between atoms: _94  and  _96
REMARK   40  A    between atoms: _96  and  _97
REMARK   41  A    between atoms: _100  and  _102
REMARK   42  A    between atoms: _102  and  _103
REMARK   43  A    between atoms: _102  and  _105
REMARK   44  A    between atoms: _105  and  _106
REMARK   45  A    between atoms: _106  and  _107
REMARK   46  A    between atoms: _111  and  _112
REMARK   47  A    between atoms: _117  and  _119
REMARK   48  A    between atoms: _119  and  _120
REMARK   49  A    between atoms: _119  and  _122
REMARK   50  A    between atoms: _122  and  _123
REMARK   51  A    between atoms: _128  and  _129
REMARK   52  A    between atoms: _131  and  _133
REMARK   53  A    between atoms: _133  and  _134
REMARK   54  A    between atoms: _133  and  _136
REMARK   55  A    between atoms: _139  and  _141
REMARK   56  A    between atoms: _141  and  _142
REMARK   57  A    between atoms: _144  and  _146
REMARK   58  A    between atoms: _146  and  _147
REMARK   59  A    between atoms: _146  and  _149
REMARK   60  A    between atoms: _149  and  _150
REMARK   61  A    between atoms: _150  and  _151
REMARK   62  A    between atoms: _156  and  _158
REMARK   63  A    between atoms: _158  and  _159
REMARK   64  A    between atoms: _158  and  _161
REMARK   65  A    between atoms: _161  and  _162
REMARK   66  A    between atoms: _165  and  _167
REMARK   67  A    between atoms: _167  and  _168
REMARK   68  A    between atoms: _167  and  _170
REMARK   69  A    between atoms: _170  and  _171
REMARK   70  A    between atoms: _174  and  _176
REMARK   71  A    between atoms: _176  and  _177
REMARK   72  A    between atoms: _179  and  _181
REMARK   73  A    between atoms: _181  and  _182
REMARK   74  A    between atoms: _181  and  _184
REMARK   75  A    between atoms: _184  and  _185
REMARK   76  A    between atoms: _185  and  _186
REMARK   77  A    between atoms: _186  and  _187
REMARK   78  A    between atoms: _196  and  _198
REMARK   79  A    between atoms: _198  and  _199
REMARK   80  A    between atoms: _198  and  _201
REMARK   81  A    between atoms: _201  and  _202
REMARK   82  A    between atoms: _207  and  _208
REMARK   83  A    between atoms: _211  and  _212
REMARK   84  A    between atoms: _217  and  _219
REMARK   85  A    between atoms: _219  and  _220
REMARK   86  A    between atoms: _219  and  _222
REMARK   87  A    between atoms: _222  and  _223
REMARK   88  A    between atoms: _226  and  _228
REMARK   89  A    between atoms: _228  and  _229
REMARK   90  A    between atoms: _228  and  _231
REMARK   91  A    between atoms: _231  and  _232
REMARK   92  A    between atoms: _237  and  _239
REMARK   93  A    between atoms: _239  and  _240
REMARK   94  A    between atoms: _239  and  _242
REMARK   95  A    between atoms: _242  and  _243
REMARK   96  A    between atoms: _253  and  _255
REMARK   97  A    between atoms: _255  and  _256
REMARK   98  A    between atoms: _255  and  _258
REMARK   99  A    between atoms: _258  and  _259
REMARK                            x       y       z     vdW  Elec       q    Type
REMARK                         _______ _______ _______ _____ _____    ______ ____
ROOT
ATOM      1  O   HOH     1      11.611   6.461  -3.188  0.00  0.00    +0.000 OA
ENDROOT
TORSDOF 0
REMARK  Name = ../refined-set-2016/2y9g/2y9g_pocket.pdb
REMARK  99 active torsions:
REMARK  status: ('A' for Active; 'I' for Inactive)
REMARK    1  A    between atoms: _1  and  _3
REMARK    2  A    between atoms: _3  and  _4
REMARK    3  A    between atoms: _3  and  _6
REMARK    4  A    between atoms: _6  and  _7
REMARK    5  A    between atoms: _10  and  _12
REMARK    6  A    between atoms: _12  and  _13
REMARK    7  A    between atoms: _12  and  _15
REMARK    8  A    between atoms: _15  and  _16
REMARK    9  A    between atoms: _16  and  _17
REMARK   10  A    between atoms: _17  and  _18
REMARK   11  A    between atoms: _18  and  _19
REMARK   12  A    between atoms: _23  and  _25
REMARK   13  A    between atoms: _25  and  _26
REMARK   14  A    between atoms: _25  and  _28
REMARK   15  A    between atoms: _31  and  _33
REMARK   16  A    between atoms: _33  and  _34
REMARK   17  A    between atoms: _33  and  _36
REMARK   18  A    between atoms: _36  and  _37
REMARK   19  A    between atoms: _40  and  _42
REMARK   20  A    between atoms: _42  and  _43
REMARK   21  A    between atoms: _42  and  _45
REMARK   22  A    between atoms: _45  and  _46
REMARK   23  A    between atoms: _52  and  _54
REMARK   24  A    between atoms: _54  and  _55
REMARK   25  A    between atoms: _54  and  _57
REMARK   26  A    between atoms: _57  and  _58
REMARK   27  A    between atoms: _60  and  _62
REMARK   28  A    between atoms: _62  and  _63
REMARK   29  A    between atoms: _62  and  _65
REMARK   30  A    between atoms: _65  and  _66
REMARK   31  A    between atoms: _66  and  _67
REMARK   32  A    between atoms: _67  and  _68
REMARK   33  A    between atoms: _77  and  _79
REMARK   34  A    between atoms: _79  and  _80
REMARK   35  A    between atoms: _79  and  _82
REMARK   36  A    between atoms: _82  and  _83
REMARK   37  A    between atoms: _83  and  _84
REMARK   38  A    between atoms: _84  and  _85
REMARK   39  A    between atoms: _94  and  _96
REMARK   40  A    between atoms: _96  and  _97
REMARK   41  A    between atoms: _100  and  _102
REMARK   42  A    between atoms: _102  and  _103
REMARK   43  A    between atoms: _102  and  _105
REMARK   44  A    between atoms: _105  and  _106
REMARK   45  A    between atoms: _106  and  _107
REMARK   46  A    between atoms: _111  and  _112
REMARK   47  A    between atoms: _117  and  _119
REMARK   48  A    between atoms: _119  and  _120
REMARK   49  A    between atoms: _119  and  _122
REMARK   50  A    between atoms: _122  and  _123
REMARK   51  A    between atoms: _128  and  _129
REMARK   52  A    between atoms: _131  and  _133
REMARK   53  A    between atoms: _133  and  _134
REMARK   54  A    between atoms: _133  and  _136
REMARK   55  A    between atoms: _139  and  _141
REMARK   56  A    between atoms: _141  and  _142
REMARK   57  A    between atoms: _144  and  _146
REMARK   58  A    between atoms: _146  and  _147
REMARK   59  A    between atoms: _146  and  _149
REMARK   60  A    between atoms: _149  and  _150
REMARK   61  A    between atoms: _150  and  _151
REMARK   62  A    between atoms: _156  and  _158
REMARK   63  A    between atoms: _158  and  _159
REMARK   64  A    between atoms: _158  and  _161
REMARK   65  A    between atoms: _161  and  _162
REMARK   66  A    between atoms: _165  and  _167
REMARK   67  A    between atoms: _167  and  _168
REMARK   68  A    between atoms: _167  and  _170
REMARK   69  A    between atoms: _170  and  _171
REMARK   70  A    between atoms: _174  and  _176
REMARK   71  A    between atoms: _176  and  _177
REMARK   72  A    between atoms: _179  and  _181
REMARK   73  A    between atoms: _181  and  _182
REMARK   74  A    between atoms: _181  and  _184
REMARK   75  A    between atoms: _184  and  _185
REMARK   76  A    between atoms: _185  and  _186
REMARK   77  A    between atoms: _186  and  _187
REMARK   78  A    between atoms: _196  and  _198
REMARK   79  A    between atoms: _198  and  _199
REMARK   80  A    between atoms: _198  and  _201
REMARK   81  A    between atoms: _201  and  _202
REMARK   82  A    between atoms: _207  and  _208
REMARK   83  A    between atoms: _211  and  _212
REMARK   84  A    between atoms: _217  and  _219
REMARK   85  A    between atoms: _219  and  _220
REMARK   86  A    between atoms: _219  and  _222
REMARK   87  A    between atoms: _222  and  _223
REMARK   88  A    between atoms: _226  and  _228
REMARK   89  A    between atoms: _228  and  _229
REMARK   90  A    between atoms: _228  and  _231
REMARK   91  A    between atoms: _231  and  _232
REMARK   92  A    between atoms: _237  and  _239
REMARK   93  A    between atoms: _239  and  _240
REMARK   94  A    between atoms: _239  and  _242
REMARK   95  A    between atoms: _242  and  _243
REMARK   96  A    between atoms: _253  and  _255
REMARK   97  A    between atoms: _255  and  _256
REMARK   98  A    between atoms: _255  and  _258
REMARK   99  A    between atoms: _258  and  _259
REMARK                            x       y       z     vdW  Elec       q    Type
REMARK                         _______ _______ _______ _____ _____    ______ ____
ROOT
ATOM      1  O   HOH     1       2.006  10.050 -10.427  0.00  0.00    +0.000 OA
ENDROOT
TORSDOF 0
REMARK  Name = ../refined-set-2016/2y9g/2y9g_pocket.pdb
REMARK  99 active torsions:
REMARK  status: ('A' for Active; 'I' for Inactive)
REMARK    1  A    between atoms: _1  and  _3
REMARK    2  A    between atoms: _3  and  _4
REMARK    3  A    between atoms: _3  and  _6
REMARK    4  A    between atoms: _6  and  _7
REMARK    5  A    between atoms: _10  and  _12
REMARK    6  A    between atoms: _12  and  _13
REMARK    7  A    between atoms: _12  and  _15
REMARK    8  A    between atoms: _15  and  _16
REMARK    9  A    between atoms: _16  and  _17
REMARK   10  A    between atoms: _17  and  _18
REMARK   11  A    between atoms: _18  and  _19
REMARK   12  A    between atoms: _23  and  _25
REMARK   13  A    between atoms: _25  and  _26
REMARK   14  A    between atoms: _25  and  _28
REMARK   15  A    between atoms: _31  and  _33
REMARK   16  A    between atoms: _33  and  _34
REMARK   17  A    between atoms: _33  and  _36
REMARK   18  A    between atoms: _36  and  _37
REMARK   19  A    between atoms: _40  and  _42
REMARK   20  A    between atoms: _42  and  _43
REMARK   21  A    between atoms: _42  and  _45
REMARK   22  A    between atoms: _45  and  _46
REMARK   23  A    between atoms: _52  and  _54
REMARK   24  A    between atoms: _54  and  _55
REMARK   25  A    between atoms: _54  and  _57
REMARK   26  A    between atoms: _57  and  _58
REMARK   27  A    between atoms: _60  and  _62
REMARK   28  A    between atoms: _62  and  _63
REMARK   29  A    between atoms: _62  and  _65
REMARK   30  A    between atoms: _65  and  _66
REMARK   31  A    between atoms: _66  and  _67
REMARK   32  A    between atoms: _67  and  _68
REMARK   33  A    between atoms: _77  and  _79
REMARK   34  A    between atoms: _79  and  _80
REMARK   35  A    between atoms: _79  and  _82
REMARK   36  A    between atoms: _82  and  _83
REMARK   37  A    between atoms: _83  and  _84
REMARK   38  A    between atoms: _84  and  _85
REMARK   39  A    between atoms: _94  and  _96
REMARK   40  A    between atoms: _96  and  _97
REMARK   41  A    between atoms: _100  and  _102
REMARK   42  A    between atoms: _102  and  _103
REMARK   43  A    between atoms: _102  and  _105
REMARK   44  A    between atoms: _105  and  _106
REMARK   45  A    between atoms: _106  and  _107
REMARK   46  A    between atoms: _111  and  _112
REMARK   47  A    between atoms: _117  and  _119
REMARK   48  A    between atoms: _119  and  _120
REMARK   49  A    between atoms: _119  and  _122
REMARK   50  A    between atoms: _122  and  _123
REMARK   51  A    between atoms: _128  and  _129
REMARK   52  A    between atoms: _131  and  _133
REMARK   53  A    between atoms: _133  and  _134
REMARK   54  A    between atoms: _133  and  _136
REMARK   55  A    between atoms: _139  and  _141
REMARK   56  A    between atoms: _141  and  _142
REMARK   57  A    between atoms: _144  and  _146
REMARK   58  A    between atoms: _146  and  _147
REMARK   59  A    between atoms: _146  and  _149
REMARK   60  A    between atoms: _149  and  _150
REMARK   61  A    between atoms: _150  and  _151
REMARK   62  A    between atoms: _156  and  _158
REMARK   63  A    between atoms: _158  and  _159
REMARK   64  A    between atoms: _158  and  _161
REMARK   65  A    between atoms: _161  and  _162
REMARK   66  A    between atoms: _165  and  _167
REMARK   67  A    between atoms: _167  and  _168
REMARK   68  A    between atoms: _167  and  _170
REMARK   69  A    between atoms: _170  and  _171
REMARK   70  A    between atoms: _174  and  _176
REMARK   71  A    between atoms: _176  and  _177
REMARK   72  A    between atoms: _179  and  _181
REMARK   73  A    between atoms: _181  and  _182
REMARK   74  A    between atoms: _181  and  _184
REMARK   75  A    between atoms: _184  and  _185
REMARK   76  A    between atoms: _185  and  _186
REMARK   77  A    between atoms: _186  and  _187
REMARK   78  A    between atoms: _196  and  _198
REMARK   79  A    between atoms: _198  and  _199
REMARK   80  A    between atoms: _198  and  _201
REMARK   81  A    between atoms: _201  and  _202
REMARK   82  A    between atoms: _207  and  _208
REMARK   83  A    between atoms: _211  and  _212
REMARK   84  A    between atoms: _217  and  _219
REMARK   85  A    between atoms: _219  and  _220
REMARK   86  A    between atoms: _219  and  _222
REMARK   87  A    between atoms: _222  and  _223
REMARK   88  A    between atoms: _226  and  _228
REMARK   89  A    between atoms: _228  and  _229
REMARK   90  A    between atoms: _228  and  _231
REMARK   91  A    between atoms: _231  and  _232
REMARK   92  A    between atoms: _237  and  _239
REMARK   93  A    between atoms: _239  and  _240
REMARK   94  A    between atoms: _239  and  _242
REMARK   95  A    between atoms: _242  and  _243
REMARK   96  A    between atoms: _253  and  _255
REMARK   97  A    between atoms: _255  and  _256
REMARK   98  A    between atoms: _255  and  _258
REMARK   99  A    between atoms: _258  and  _259
REMARK                            x       y       z     vdW  Elec       q    Type
REMARK                         _______ _______ _______ _____ _____    ______ ____
ROOT
ATOM      1  O   HOH     1      -2.522   1.371  -4.016  0.00  0.00    +0.000 OA
ENDROOT
TORSDOF 0
REMARK  Name = ../refined-set-2016/2y9g/2y9g_pocket.pdb
REMARK  99 active torsions:
REMARK  status: ('A' for Active; 'I' for Inactive)
REMARK    1  A    between atoms: _1  and  _3
REMARK    2  A    between atoms: _3  and  _4
REMARK    3  A    between atoms: _3  and  _6
REMARK    4  A    between atoms: _6  and  _7
REMARK    5  A    between atoms: _10  and  _12
REMARK    6  A    between atoms: _12  and  _13
REMARK    7  A    between atoms: _12  and  _15
REMARK    8  A    between atoms: _15  and  _16
REMARK    9  A    between atoms: _16  and  _17
REMARK   10  A    between atoms: _17  and  _18
REMARK   11  A    between atoms: _18  and  _19
REMARK   12  A    between atoms: _23  and  _25
REMARK   13  A    between atoms: _25  and  _26
REMARK   14  A    between atoms: _25  and  _28
REMARK   15  A    between atoms: _31  and  _33
REMARK   16  A    between atoms: _33  and  _34
REMARK   17  A    between atoms: _33  and  _36
REMARK   18  A    between atoms: _36  and  _37
REMARK   19  A    between atoms: _40  and  _42
REMARK   20  A    between atoms: _42  and  _43
REMARK   21  A    between atoms: _42  and  _45
REMARK   22  A    between atoms: _45  and  _46
REMARK   23  A    between atoms: _52  and  _54
REMARK   24  A    between atoms: _54  and  _55
REMARK   25  A    between atoms: _54  and  _57
REMARK   26  A    between atoms: _57  and  _58
REMARK   27  A    between atoms: _60  and  _62
REMARK   28  A    between atoms: _62  and  _63
REMARK   29  A    between atoms: _62  and  _65
REMARK   30  A    between atoms: _65  and  _66
REMARK   31  A    between atoms: _66  and  _67
REMARK   32  A    between atoms: _67  and  _68
REMARK   33  A    between atoms: _77  and  _79
REMARK   34  A    between atoms: _79  and  _80
REMARK   35  A    between atoms: _79  and  _82
REMARK   36  A    between atoms: _82  and  _83
REMARK   37  A    between atoms: _83  and  _84
REMARK   38  A    between atoms: _84  and  _85
REMARK   39  A    between atoms: _94  and  _96
REMARK   40  A    between atoms: _96  and  _97
REMARK   41  A    between atoms: _100  and  _102
REMARK   42  A    between atoms: _102  and  _103
REMARK   43  A    between atoms: _102  and  _105
REMARK   44  A    between atoms: _105  and  _106
REMARK   45  A    between atoms: _106  and  _107
REMARK   46  A    between atoms: _111  and  _112
REMARK   47  A    between atoms: _117  and  _119
REMARK   48  A    between atoms: _119  and  _120
REMARK   49  A    between atoms: _119  and  _122
REMARK   50  A    between atoms: _122  and  _123
REMARK   51  A    between atoms: _128  and  _129
REMARK   52  A    between atoms: _131  and  _133
REMARK   53  A    between atoms: _133  and  _134
REMARK   54  A    between atoms: _133  and  _136
REMARK   55  A    between atoms: _139  and  _141
REMARK   56  A    between atoms: _141  and  _142
REMARK   57  A    between atoms: _144  and  _146
REMARK   58  A    between atoms: _146  and  _147
REMARK   59  A    between atoms: _146  and  _149
REMARK   60  A    between atoms: _149  and  _150
REMARK   61  A    between atoms: _150  and  _151
REMARK   62  A    between atoms: _156  and  _158
REMARK   63  A    between atoms: _158  and  _159
REMARK   64  A    between atoms: _158  and  _161
REMARK   65  A    between atoms: _161  and  _162
REMARK   66  A    between atoms: _165  and  _167
REMARK   67  A    between atoms: _167  and  _168
REMARK   68  A    between atoms: _167  and  _170
REMARK   69  A    between atoms: _170  and  _171
REMARK   70  A    between atoms: _174  and  _176
REMARK   71  A    between atoms: _176  and  _177
REMARK   72  A    between atoms: _179  and  _181
REMARK   73  A    between atoms: _181  and  _182
REMARK   74  A    between atoms: _181  and  _184
REMARK   75  A    between atoms: _184  and  _185
REMARK   76  A    between atoms: _185  and  _186
REMARK   77  A    between atoms: _186  and  _187
REMARK   78  A    between atoms: _196  and  _198
REMARK   79  A    between atoms: _198  and  _199
REMARK   80  A    between atoms: _198  and  _201
REMARK   81  A    between atoms: _201  and  _202
REMARK   82  A    between atoms: _207  and  _208
REMARK   83  A    between atoms: _211  and  _212
REMARK   84  A    between atoms: _217  and  _219
REMARK   85  A    between atoms: _219  and  _220
REMARK   86  A    between atoms: _219  and  _222
REMARK   87  A    between atoms: _222  and  _223
REMARK   88  A    between atoms: _226  and  _228
REMARK   89  A    between atoms: _228  and  _229
REMARK   90  A    between atoms: _228  and  _231
REMARK   91  A    between atoms: _231  and  _232
REMARK   92  A    between atoms: _237  and  _239
REMARK   93  A    between atoms: _239  and  _240
REMARK   94  A    between atoms: _239  and  _242
REMARK   95  A    between atoms: _242  and  _243
REMARK   96  A    between atoms: _253  and  _255
REMARK   97  A    between atoms: _255  and  _256
REMARK   98  A    between atoms: _255  and  _258
REMARK   99  A    between atoms: _258  and  _259
REMARK                            x       y       z     vdW  Elec       q    Type
REMARK                         _______ _______ _______ _____ _____    ______ ____
ROOT
ATOM      1  O   HOH     1      -1.603   8.263  -4.383  0.00  0.00    +0.000 OA
ENDROOT
TORSDOF 0
REMARK  Name = ../refined-set-2016/2y9g/2y9g_pocket.pdb
REMARK  99 active torsions:
REMARK  status: ('A' for Active; 'I' for Inactive)
REMARK    1  A    between atoms: _1  and  _3
REMARK    2  A    between atoms: _3  and  _4
REMARK    3  A    between atoms: _3  and  _6
REMARK    4  A    between atoms: _6  and  _7
REMARK    5  A    between atoms: _10  and  _12
REMARK    6  A    between atoms: _12  and  _13
REMARK    7  A    between atoms: _12  and  _15
REMARK    8  A    between atoms: _15  and  _16
REMARK    9  A    between atoms: _16  and  _17
REMARK   10  A    between atoms: _17  and  _18
REMARK   11  A    between atoms: _18  and  _19
REMARK   12  A    between atoms: _23  and  _25
REMARK   13  A    between atoms: _25  and  _26
REMARK   14  A    between atoms: _25  and  _28
REMARK   15  A    between atoms: _31  and  _33
REMARK   16  A    between atoms: _33  and  _34
REMARK   17  A    between atoms: _33  and  _36
REMARK   18  A    between atoms: _36  and  _37
REMARK   19  A    between atoms: _40  and  _42
REMARK   20  A    between atoms: _42  and  _43
REMARK   21  A    between atoms: _42  and  _45
REMARK   22  A    between atoms: _45  and  _46
REMARK   23  A    between atoms: _52  and  _54
REMARK   24  A    between atoms: _54  and  _55
REMARK   25  A    between atoms: _54  and  _57
REMARK   26  A    between atoms: _57  and  _58
REMARK   27  A    between atoms: _60  and  _62
REMARK   28  A    between atoms: _62  and  _63
REMARK   29  A    between atoms: _62  and  _65
REMARK   30  A    between atoms: _65  and  _66
REMARK   31  A    between atoms: _66  and  _67
REMARK   32  A    between atoms: _67  and  _68
REMARK   33  A    between atoms: _77  and  _79
REMARK   34  A    between atoms: _79  and  _80
REMARK   35  A    between atoms: _79  and  _82
REMARK   36  A    between atoms: _82  and  _83
REMARK   37  A    between atoms: _83  and  _84
REMARK   38  A    between atoms: _84  and  _85
REMARK   39  A    between atoms: _94  and  _96
REMARK   40  A    between atoms: _96  and  _97
REMARK   41  A    between atoms: _100  and  _102
REMARK   42  A    between atoms: _102  and  _103
REMARK   43  A    between atoms: _102  and  _105
REMARK   44  A    between atoms: _105  and  _106
REMARK   45  A    between atoms: _106  and  _107
REMARK   46  A    between atoms: _111  and  _112
REMARK   47  A    between atoms: _117  and  _119
REMARK   48  A    between atoms: _119  and  _120
REMARK   49  A    between atoms: _119  and  _122
REMARK   50  A    between atoms: _122  and  _123
REMARK   51  A    between atoms: _128  and  _129
REMARK   52  A    between atoms: _131  and  _133
REMARK   53  A    between atoms: _133  and  _134
REMARK   54  A    between atoms: _133  and  _136
REMARK   55  A    between atoms: _139  and  _141
REMARK   56  A    between atoms: _141  and  _142
REMARK   57  A    between atoms: _144  and  _146
REMARK   58  A    between atoms: _146  and  _147
REMARK   59  A    between atoms: _146  and  _149
REMARK   60  A    between atoms: _149  and  _150
REMARK   61  A    between atoms: _150  and  _151
REMARK   62  A    between atoms: _156  and  _158
REMARK   63  A    between atoms: _158  and  _159
REMARK   64  A    between atoms: _158  and  _161
REMARK   65  A    between atoms: _161  and  _162
REMARK   66  A    between atoms: _165  and  _167
REMARK   67  A    between atoms: _167  and  _168
REMARK   68  A    between atoms: _167  and  _170
REMARK   69  A    between atoms: _170  and  _171
REMARK   70  A    between atoms: _174  and  _176
REMARK   71  A    between atoms: _176  and  _177
REMARK   72  A    between atoms: _179  and  _181
REMARK   73  A    between atoms: _181  and  _182
REMARK   74  A    between atoms: _181  and  _184
REMARK   75  A    between atoms: _184  and  _185
REMARK   76  A    between atoms: _185  and  _186
REMARK   77  A    between atoms: _186  and  _187
REMARK   78  A    between atoms: _196  and  _198
REMARK   79  A    between atoms: _198  and  _199
REMARK   80  A    between atoms: _198  and  _201
REMARK   81  A    between atoms: _201  and  _202
REMARK   82  A    between atoms: _207  and  _208
REMARK   83  A    between atoms: _211  and  _212
REMARK   84  A    between atoms: _217  and  _219
REMARK   85  A    between atoms: _219  and  _220
REMARK   86  A    between atoms: _219  and  _222
REMARK   87  A    between atoms: _222  and  _223
REMARK   88  A    between atoms: _226  and  _228
REMARK   89  A    between atoms: _228  and  _229
REMARK   90  A    between atoms: _228  and  _231
REMARK   91  A    between atoms: _231  and  _232
REMARK   92  A    between atoms: _237  and  _239
REMARK   93  A    between atoms: _239  and  _240
REMARK   94  A    between atoms: _239  and  _242
REMARK   95  A    between atoms: _242  and  _243
REMARK   96  A    between atoms: _253  and  _255
REMARK   97  A    between atoms: _255  and  _256
REMARK   98  A    between atoms: _255  and  _258
REMARK   99  A    between atoms: _258  and  _259
REMARK                            x       y       z     vdW  Elec       q    Type
REMARK                         _______ _______ _______ _____ _____    ______ ____
ROOT
ATOM      1  O   HOH     1       0.347   0.070   2.183  0.00  0.00    +0.000 OA
ENDROOT
TORSDOF 0
REMARK  Name = ../refined-set-2016/2y9g/2y9g_pocket.pdb
REMARK  99 active torsions:
REMARK  status: ('A' for Active; 'I' for Inactive)
REMARK    1  A    between atoms: _1  and  _3
REMARK    2  A    between atoms: _3  and  _4
REMARK    3  A    between atoms: _3  and  _6
REMARK    4  A    between atoms: _6  and  _7
REMARK    5  A    between atoms: _10  and  _12
REMARK    6  A    between atoms: _12  and  _13
REMARK    7  A    between atoms: _12  and  _15
REMARK    8  A    between atoms: _15  and  _16
REMARK    9  A    between atoms: _16  and  _17
REMARK   10  A    between atoms: _17  and  _18
REMARK   11  A    between atoms: _18  and  _19
REMARK   12  A    between atoms: _23  and  _25
REMARK   13  A    between atoms: _25  and  _26
REMARK   14  A    between atoms: _25  and  _28
REMARK   15  A    between atoms: _31  and  _33
REMARK   16  A    between atoms: _33  and  _34
REMARK   17  A    between atoms: _33  and  _36
REMARK   18  A    between atoms: _36  and  _37
REMARK   19  A    between atoms: _40  and  _42
REMARK   20  A    between atoms: _42  and  _43
REMARK   21  A    between atoms: _42  and  _45
REMARK   22  A    between atoms: _45  and  _46
REMARK   23  A    between atoms: _52  and  _54
REMARK   24  A    between atoms: _54  and  _55
REMARK   25  A    between atoms: _54  and  _57
REMARK   26  A    between atoms: _57  and  _58
REMARK   27  A    between atoms: _60  and  _62
REMARK   28  A    between atoms: _62  and  _63
REMARK   29  A    between atoms: _62  and  _65
REMARK   30  A    between atoms: _65  and  _66
REMARK   31  A    between atoms: _66  and  _67
REMARK   32  A    between atoms: _67  and  _68
REMARK   33  A    between atoms: _77  and  _79
REMARK   34  A    between atoms: _79  and  _80
REMARK   35  A    between atoms: _79  and  _82
REMARK   36  A    between atoms: _82  and  _83
REMARK   37  A    between atoms: _83  and  _84
REMARK   38  A    between atoms: _84  and  _85
REMARK   39  A    between atoms: _94  and  _96
REMARK   40  A    between atoms: _96  and  _97
REMARK   41  A    between atoms: _100  and  _102
REMARK   42  A    between atoms: _102  and  _103
REMARK   43  A    between atoms: _102  and  _105
REMARK   44  A    between atoms: _105  and  _106
REMARK   45  A    between atoms: _106  and  _107
REMARK   46  A    between atoms: _111  and  _112
REMARK   47  A    between atoms: _117  and  _119
REMARK   48  A    between atoms: _119  and  _120
REMARK   49  A    between atoms: _119  and  _122
REMARK   50  A    between atoms: _122  and  _123
REMARK   51  A    between atoms: _128  and  _129
REMARK   52  A    between atoms: _131  and  _133
REMARK   53  A    between atoms: _133  and  _134
REMARK   54  A    between atoms: _133  and  _136
REMARK   55  A    between atoms: _139  and  _141
REMARK   56  A    between atoms: _141  and  _142
REMARK   57  A    between atoms: _144  and  _146
REMARK   58  A    between atoms: _146  and  _147
REMARK   59  A    between atoms: _146  and  _149
REMARK   60  A    between atoms: _149  and  _150
REMARK   61  A    between atoms: _150  and  _151
REMARK   62  A    between atoms: _156  and  _158
REMARK   63  A    between atoms: _158  and  _159
REMARK   64  A    between atoms: _158  and  _161
REMARK   65  A    between atoms: _161  and  _162
REMARK   66  A    between atoms: _165  and  _167
REMARK   67  A    between atoms: _167  and  _168
REMARK   68  A    between atoms: _167  and  _170
REMARK   69  A    between atoms: _170  and  _171
REMARK   70  A    between atoms: _174  and  _176
REMARK   71  A    between atoms: _176  and  _177
REMARK   72  A    between atoms: _179  and  _181
REMARK   73  A    between atoms: _181  and  _182
REMARK   74  A    between atoms: _181  and  _184
REMARK   75  A    between atoms: _184  and  _185
REMARK   76  A    between atoms: _185  and  _186
REMARK   77  A    between atoms: _186  and  _187
REMARK   78  A    between atoms: _196  and  _198
REMARK   79  A    between atoms: _198  and  _199
REMARK   80  A    between atoms: _198  and  _201
REMARK   81  A    between atoms: _201  and  _202
REMARK   82  A    between atoms: _207  and  _208
REMARK   83  A    between atoms: _211  and  _212
REMARK   84  A    between atoms: _217  and  _219
REMARK   85  A    between atoms: _219  and  _220
REMARK   86  A    between atoms: _219  and  _222
REMARK   87  A    between atoms: _222  and  _223
REMARK   88  A    between atoms: _226  and  _228
REMARK   89  A    between atoms: _228  and  _229
REMARK   90  A    between atoms: _228  and  _231
REMARK   91  A    between atoms: _231  and  _232
REMARK   92  A    between atoms: _237  and  _239
REMARK   93  A    between atoms: _239  and  _240
REMARK   94  A    between atoms: _239  and  _242
REMARK   95  A    between atoms: _242  and  _243
REMARK   96  A    between atoms: _253  and  _255
REMARK   97  A    between atoms: _255  and  _256
REMARK   98  A    between atoms: _255  and  _258
REMARK   99  A    between atoms: _258  and  _259
REMARK                            x       y       z     vdW  Elec       q    Type
REMARK                         _______ _______ _______ _____ _____    ______ ____
ROOT
ATOM      1  O   HOH     1       2.434   4.387   2.754  0.00  0.00    +0.000 OA
ENDROOT
TORSDOF 0
REMARK  Name = ../refined-set-2016/2y9g/2y9g_pocket.pdb
REMARK  99 active torsions:
REMARK  status: ('A' for Active; 'I' for Inactive)
REMARK    1  A    between atoms: _1  and  _3
REMARK    2  A    between atoms: _3  and  _4
REMARK    3  A    between atoms: _3  and  _6
REMARK    4  A    between atoms: _6  and  _7
REMARK    5  A    between atoms: _10  and  _12
REMARK    6  A    between atoms: _12  and  _13
REMARK    7  A    between atoms: _12  and  _15
REMARK    8  A    between atoms: _15  and  _16
REMARK    9  A    between atoms: _16  and  _17
REMARK   10  A    between atoms: _17  and  _18
REMARK   11  A    between atoms: _18  and  _19
REMARK   12  A    between atoms: _23  and  _25
REMARK   13  A    between atoms: _25  and  _26
REMARK   14  A    between atoms: _25  and  _28
REMARK   15  A    between atoms: _31  and  _33
REMARK   16  A    between atoms: _33  and  _34
REMARK   17  A    between atoms: _33  and  _36
REMARK   18  A    between atoms: _36  and  _37
REMARK   19  A    between atoms: _40  and  _42
REMARK   20  A    between atoms: _42  and  _43
REMARK   21  A    between atoms: _42  and  _45
REMARK   22  A    between atoms: _45  and  _46
REMARK   23  A    between atoms: _52  and  _54
REMARK   24  A    between atoms: _54  and  _55
REMARK   25  A    between atoms: _54  and  _57
REMARK   26  A    between atoms: _57  and  _58
REMARK   27  A    between atoms: _60  and  _62
REMARK   28  A    between atoms: _62  and  _63
REMARK   29  A    between atoms: _62  and  _65
REMARK   30  A    between atoms: _65  and  _66
REMARK   31  A    between atoms: _66  and  _67
REMARK   32  A    between atoms: _67  and  _68
REMARK   33  A    between atoms: _77  and  _79
REMARK   34  A    between atoms: _79  and  _80
REMARK   35  A    between atoms: _79  and  _82
REMARK   36  A    between atoms: _82  and  _83
REMARK   37  A    between atoms: _83  and  _84
REMARK   38  A    between atoms: _84  and  _85
REMARK   39  A    between atoms: _94  and  _96
REMARK   40  A    between atoms: _96  and  _97
REMARK   41  A    between atoms: _100  and  _102
REMARK   42  A    between atoms: _102  and  _103
REMARK   43  A    between atoms: _102  and  _105
REMARK   44  A    between atoms: _105  and  _106
REMARK   45  A    between atoms: _106  and  _107
REMARK   46  A    between atoms: _111  and  _112
REMARK   47  A    between atoms: _117  and  _119
REMARK   48  A    between atoms: _119  and  _120
REMARK   49  A    between atoms: _119  and  _122
REMARK   50  A    between atoms: _122  and  _123
REMARK   51  A    between atoms: _128  and  _129
REMARK   52  A    between atoms: _131  and  _133
REMARK   53  A    between atoms: _133  and  _134
REMARK   54  A    between atoms: _133  and  _136
REMARK   55  A    between atoms: _139  and  _141
REMARK   56  A    between atoms: _141  and  _142
REMARK   57  A    between atoms: _144  and  _146
REMARK   58  A    between atoms: _146  and  _147
REMARK   59  A    between atoms: _146  and  _149
REMARK   60  A    between atoms: _149  and  _150
REMARK   61  A    between atoms: _150  and  _151
REMARK   62  A    between atoms: _156  and  _158
REMARK   63  A    between atoms: _158  and  _159
REMARK   64  A    between atoms: _158  and  _161
REMARK   65  A    between atoms: _161  and  _162
REMARK   66  A    between atoms: _165  and  _167
REMARK   67  A    between atoms: _167  and  _168
REMARK   68  A    between atoms: _167  and  _170
REMARK   69  A    between atoms: _170  and  _171
REMARK   70  A    between atoms: _174  and  _176
REMARK   71  A    between atoms: _176  and  _177
REMARK   72  A    between atoms: _179  and  _181
REMARK   73  A    between atoms: _181  and  _182
REMARK   74  A    between atoms: _181  and  _184
REMARK   75  A    between atoms: _184  and  _185
REMARK   76  A    between atoms: _185  and  _186
REMARK   77  A    between atoms: _186  and  _187
REMARK   78  A    between atoms: _196  and  _198
REMARK   79  A    between atoms: _198  and  _199
REMARK   80  A    between atoms: _198  and  _201
REMARK   81  A    between atoms: _201  and  _202
REMARK   82  A    between atoms: _207  and  _208
REMARK   83  A    between atoms: _211  and  _212
REMARK   84  A    between atoms: _217  and  _219
REMARK   85  A    between atoms: _219  and  _220
REMARK   86  A    between atoms: _219  and  _222
REMARK   87  A    between atoms: _222  and  _223
REMARK   88  A    between atoms: _226  and  _228
REMARK   89  A    between atoms: _228  and  _229
REMARK   90  A    between atoms: _228  and  _231
REMARK   91  A    between atoms: _231  and  _232
REMARK   92  A    between atoms: _237  and  _239
REMARK   93  A    between atoms: _239  and  _240
REMARK   94  A    between atoms: _239  and  _242
REMARK   95  A    between atoms: _242  and  _243
REMARK   96  A    between atoms: _253  and  _255
REMARK   97  A    between atoms: _255  and  _256
REMARK   98  A    between atoms: _255  and  _258
REMARK   99  A    between atoms: _258  and  _259
REMARK                            x       y       z     vdW  Elec       q    Type
REMARK                         _______ _______ _______ _____ _____    ______ ____
ROOT
ATOM      1  O   HOH     1      -0.033   4.360   6.359  0.00  0.00    +0.000 OA
ENDROOT
TORSDOF 0
REMARK  Name = ../refined-set-2016/2y9g/2y9g_pocket.pdb
REMARK  99 active torsions:
REMARK  status: ('A' for Active; 'I' for Inactive)
REMARK    1  A    between atoms: _1  and  _3
REMARK    2  A    between atoms: _3  and  _4
REMARK    3  A    between atoms: _3  and  _6
REMARK    4  A    between atoms: _6  and  _7
REMARK    5  A    between atoms: _10  and  _12
REMARK    6  A    between atoms: _12  and  _13
REMARK    7  A    between atoms: _12  and  _15
REMARK    8  A    between atoms: _15  and  _16
REMARK    9  A    between atoms: _16  and  _17
REMARK   10  A    between atoms: _17  and  _18
REMARK   11  A    between atoms: _18  and  _19
REMARK   12  A    between atoms: _23  and  _25
REMARK   13  A    between atoms: _25  and  _26
REMARK   14  A    between atoms: _25  and  _28
REMARK   15  A    between atoms: _31  and  _33
REMARK   16  A    between atoms: _33  and  _34
REMARK   17  A    between atoms: _33  and  _36
REMARK   18  A    between atoms: _36  and  _37
REMARK   19  A    between atoms: _40  and  _42
REMARK   20  A    between atoms: _42  and  _43
REMARK   21  A    between atoms: _42  and  _45
REMARK   22  A    between atoms: _45  and  _46
REMARK   23  A    between atoms: _52  and  _54
REMARK   24  A    between atoms: _54  and  _55
REMARK   25  A    between atoms: _54  and  _57
REMARK   26  A    between atoms: _57  and  _58
REMARK   27  A    between atoms: _60  and  _62
REMARK   28  A    between atoms: _62  and  _63
REMARK   29  A    between atoms: _62  and  _65
REMARK   30  A    between atoms: _65  and  _66
REMARK   31  A    between atoms: _66  and  _67
REMARK   32  A    between atoms: _67  and  _68
REMARK   33  A    between atoms: _77  and  _79
REMARK   34  A    between atoms: _79  and  _80
REMARK   35  A    between atoms: _79  and  _82
REMARK   36  A    between atoms: _82  and  _83
REMARK   37  A    between atoms: _83  and  _84
REMARK   38  A    between atoms: _84  and  _85
REMARK   39  A    between atoms: _94  and  _96
REMARK   40  A    between atoms: _96  and  _97
REMARK   41  A    between atoms: _100  and  _102
REMARK   42  A    between atoms: _102  and  _103
REMARK   43  A    between atoms: _102  and  _105
REMARK   44  A    between atoms: _105  and  _106
REMARK   45  A    between atoms: _106  and  _107
REMARK   46  A    between atoms: _111  and  _112
REMARK   47  A    between atoms: _117  and  _119
REMARK   48  A    between atoms: _119  and  _120
REMARK   49  A    between atoms: _119  and  _122
REMARK   50  A    between atoms: _122  and  _123
REMARK   51  A    between atoms: _128  and  _129
REMARK   52  A    between atoms: _131  and  _133
REMARK   53  A    between atoms: _133  and  _134
REMARK   54  A    between atoms: _133  and  _136
REMARK   55  A    between atoms: _139  and  _141
REMARK   56  A    between atoms: _141  and  _142
REMARK   57  A    between atoms: _144  and  _146
REMARK   58  A    between atoms: _146  and  _147
REMARK   59  A    between atoms: _146  and  _149
REMARK   60  A    between atoms: _149  and  _150
REMARK   61  A    between atoms: _150  and  _151
REMARK   62  A    between atoms: _156  and  _158
REMARK   63  A    between atoms: _158  and  _159
REMARK   64  A    between atoms: _158  and  _161
REMARK   65  A    between atoms: _161  and  _162
REMARK   66  A    between atoms: _165  and  _167
REMARK   67  A    between atoms: _167  and  _168
REMARK   68  A    between atoms: _167  and  _170
REMARK   69  A    between atoms: _170  and  _171
REMARK   70  A    between atoms: _174  and  _176
REMARK   71  A    between atoms: _176  and  _177
REMARK   72  A    between atoms: _179  and  _181
REMARK   73  A    between atoms: _181  and  _182
REMARK   74  A    between atoms: _181  and  _184
REMARK   75  A    between atoms: _184  and  _185
REMARK   76  A    between atoms: _185  and  _186
REMARK   77  A    between atoms: _186  and  _187
REMARK   78  A    between atoms: _196  and  _198
REMARK   79  A    between atoms: _198  and  _199
REMARK   80  A    between atoms: _198  and  _201
REMARK   81  A    between atoms: _201  and  _202
REMARK   82  A    between atoms: _207  and  _208
REMARK   83  A    between atoms: _211  and  _212
REMARK   84  A    between atoms: _217  and  _219
REMARK   85  A    between atoms: _219  and  _220
REMARK   86  A    between atoms: _219  and  _222
REMARK   87  A    between atoms: _222  and  _223
REMARK   88  A    between atoms: _226  and  _228
REMARK   89  A    between atoms: _228  and  _229
REMARK   90  A    between atoms: _228  and  _231
REMARK   91  A    between atoms: _231  and  _232
REMARK   92  A    between atoms: _237  and  _239
REMARK   93  A    between atoms: _239  and  _240
REMARK   94  A    between atoms: _239  and  _242
REMARK   95  A    between atoms: _242  and  _243
REMARK   96  A    between atoms: _253  and  _255
REMARK   97  A    between atoms: _255  and  _256
REMARK   98  A    between atoms: _255  and  _258
REMARK   99  A    between atoms: _258  and  _259
REMARK                            x       y       z     vdW  Elec       q    Type
REMARK                         _______ _______ _______ _____ _____    ______ ____
ROOT
ATOM      1  O   HOH     1      -0.433   7.731   3.723  0.00  0.00    +0.000 OA
ENDROOT
TORSDOF 0
REMARK  Name = ../refined-set-2016/2y9g/2y9g_pocket.pdb
REMARK  99 active torsions:
REMARK  status: ('A' for Active; 'I' for Inactive)
REMARK    1  A    between atoms: _1  and  _3
REMARK    2  A    between atoms: _3  and  _4
REMARK    3  A    between atoms: _3  and  _6
REMARK    4  A    between atoms: _6  and  _7
REMARK    5  A    between atoms: _10  and  _12
REMARK    6  A    between atoms: _12  and  _13
REMARK    7  A    between atoms: _12  and  _15
REMARK    8  A    between atoms: _15  and  _16
REMARK    9  A    between atoms: _16  and  _17
REMARK   10  A    between atoms: _17  and  _18
REMARK   11  A    between atoms: _18  and  _19
REMARK   12  A    between atoms: _23  and  _25
REMARK   13  A    between atoms: _25  and  _26
REMARK   14  A    between atoms: _25  and  _28
REMARK   15  A    between atoms: _31  and  _33
REMARK   16  A    between atoms: _33  and  _34
REMARK   17  A    between atoms: _33  and  _36
REMARK   18  A    between atoms: _36  and  _37
REMARK   19  A    between atoms: _40  and  _42
REMARK   20  A    between atoms: _42  and  _43
REMARK   21  A    between atoms: _42  and  _45
REMARK   22  A    between atoms: _45  and  _46
REMARK   23  A    between atoms: _52  and  _54
REMARK   24  A    between atoms: _54  and  _55
REMARK   25  A    between atoms: _54  and  _57
REMARK   26  A    between atoms: _57  and  _58
REMARK   27  A    between atoms: _60  and  _62
REMARK   28  A    between atoms: _62  and  _63
REMARK   29  A    between atoms: _62  and  _65
REMARK   30  A    between atoms: _65  and  _66
REMARK   31  A    between atoms: _66  and  _67
REMARK   32  A    between atoms: _67  and  _68
REMARK   33  A    between atoms: _77  and  _79
REMARK   34  A    between atoms: _79  and  _80
REMARK   35  A    between atoms: _79  and  _82
REMARK   36  A    between atoms: _82  and  _83
REMARK   37  A    between atoms: _83  and  _84
REMARK   38  A    between atoms: _84  and  _85
REMARK   39  A    between atoms: _94  and  _96
REMARK   40  A    between atoms: _96  and  _97
REMARK   41  A    between atoms: _100  and  _102
REMARK   42  A    between atoms: _102  and  _103
REMARK   43  A    between atoms: _102  and  _105
REMARK   44  A    between atoms: _105  and  _106
REMARK   45  A    between atoms: _106  and  _107
REMARK   46  A    between atoms: _111  and  _112
REMARK   47  A    between atoms: _117  and  _119
REMARK   48  A    between atoms: _119  and  _120
REMARK   49  A    between atoms: _119  and  _122
REMARK   50  A    between atoms: _122  and  _123
REMARK   51  A    between atoms: _128  and  _129
REMARK   52  A    between atoms: _131  and  _133
REMARK   53  A    between atoms: _133  and  _134
REMARK   54  A    between atoms: _133  and  _136
REMARK   55  A    between atoms: _139  and  _141
REMARK   56  A    between atoms: _141  and  _142
REMARK   57  A    between atoms: _144  and  _146
REMARK   58  A    between atoms: _146  and  _147
REMARK   59  A    between atoms: _146  and  _149
REMARK   60  A    between atoms: _149  and  _150
REMARK   61  A    between atoms: _150  and  _151
REMARK   62  A    between atoms: _156  and  _158
REMARK   63  A    between atoms: _158  and  _159
REMARK   64  A    between atoms: _158  and  _161
REMARK   65  A    between atoms: _161  and  _162
REMARK   66  A    between atoms: _165  and  _167
REMARK   67  A    between atoms: _167  and  _168
REMARK   68  A    between atoms: _167  and  _170
REMARK   69  A    between atoms: _170  and  _171
REMARK   70  A    between atoms: _174  and  _176
REMARK   71  A    between atoms: _176  and  _177
REMARK   72  A    between atoms: _179  and  _181
REMARK   73  A    between atoms: _181  and  _182
REMARK   74  A    between atoms: _181  and  _184
REMARK   75  A    between atoms: _184  and  _185
REMARK   76  A    between atoms: _185  and  _186
REMARK   77  A    between atoms: _186  and  _187
REMARK   78  A    between atoms: _196  and  _198
REMARK   79  A    between atoms: _198  and  _199
REMARK   80  A    between atoms: _198  and  _201
REMARK   81  A    between atoms: _201  and  _202
REMARK   82  A    between atoms: _207  and  _208
REMARK   83  A    between atoms: _211  and  _212
REMARK   84  A    between atoms: _217  and  _219
REMARK   85  A    between atoms: _219  and  _220
REMARK   86  A    between atoms: _219  and  _222
REMARK   87  A    between atoms: _222  and  _223
REMARK   88  A    between atoms: _226  and  _228
REMARK   89  A    between atoms: _228  and  _229
REMARK   90  A    between atoms: _228  and  _231
REMARK   91  A    between atoms: _231  and  _232
REMARK   92  A    between atoms: _237  and  _239
REMARK   93  A    between atoms: _239  and  _240
REMARK   94  A    between atoms: _239  and  _242
REMARK   95  A    between atoms: _242  and  _243
REMARK   96  A    between atoms: _253  and  _255
REMARK   97  A    between atoms: _255  and  _256
REMARK   98  A    between atoms: _255  and  _258
REMARK   99  A    between atoms: _258  and  _259
REMARK                            x       y       z     vdW  Elec       q    Type
REMARK                         _______ _______ _______ _____ _____    ______ ____
ROOT
ATOM      1  O   HOH     1      -4.665   3.978  -1.749  0.00  0.00    +0.000 OA
ENDROOT
TORSDOF 0
REMARK  Name = ../refined-set-2016/2y9g/2y9g_pocket.pdb
REMARK  99 active torsions:
REMARK  status: ('A' for Active; 'I' for Inactive)
REMARK    1  A    between atoms: _1  and  _3
REMARK    2  A    between atoms: _3  and  _4
REMARK    3  A    between atoms: _3  and  _6
REMARK    4  A    between atoms: _6  and  _7
REMARK    5  A    between atoms: _10  and  _12
REMARK    6  A    between atoms: _12  and  _13
REMARK    7  A    between atoms: _12  and  _15
REMARK    8  A    between atoms: _15  and  _16
REMARK    9  A    between atoms: _16  and  _17
REMARK   10  A    between atoms: _17  and  _18
REMARK   11  A    between atoms: _18  and  _19
REMARK   12  A    between atoms: _23  and  _25
REMARK   13  A    between atoms: _25  and  _26
REMARK   14  A    between atoms: _25  and  _28
REMARK   15  A    between atoms: _31  and  _33
REMARK   16  A    between atoms: _33  and  _34
REMARK   17  A    between atoms: _33  and  _36
REMARK   18  A    between atoms: _36  and  _37
REMARK   19  A    between atoms: _40  and  _42
REMARK   20  A    between atoms: _42  and  _43
REMARK   21  A    between atoms: _42  and  _45
REMARK   22  A    between atoms: _45  and  _46
REMARK   23  A    between atoms: _52  and  _54
REMARK   24  A    between atoms: _54  and  _55
REMARK   25  A    between atoms: _54  and  _57
REMARK   26  A    between atoms: _57  and  _58
REMARK   27  A    between atoms: _60  and  _62
REMARK   28  A    between atoms: _62  and  _63
REMARK   29  A    between atoms: _62  and  _65
REMARK   30  A    between atoms: _65  and  _66
REMARK   31  A    between atoms: _66  and  _67
REMARK   32  A    between atoms: _67  and  _68
REMARK   33  A    between atoms: _77  and  _79
REMARK   34  A    between atoms: _79  and  _80
REMARK   35  A    between atoms: _79  and  _82
REMARK   36  A    between atoms: _82  and  _83
REMARK   37  A    between atoms: _83  and  _84
REMARK   38  A    between atoms: _84  and  _85
REMARK   39  A    between atoms: _94  and  _96
REMARK   40  A    between atoms: _96  and  _97
REMARK   41  A    between atoms: _100  and  _102
REMARK   42  A    between atoms: _102  and  _103
REMARK   43  A    between atoms: _102  and  _105
REMARK   44  A    between atoms: _105  and  _106
REMARK   45  A    between atoms: _106  and  _107
REMARK   46  A    between atoms: _111  and  _112
REMARK   47  A    between atoms: _117  and  _119
REMARK   48  A    between atoms: _119  and  _120
REMARK   49  A    between atoms: _119  and  _122
REMARK   50  A    between atoms: _122  and  _123
REMARK   51  A    between atoms: _128  and  _129
REMARK   52  A    between atoms: _131  and  _133
REMARK   53  A    between atoms: _133  and  _134
REMARK   54  A    between atoms: _133  and  _136
REMARK   55  A    between atoms: _139  and  _141
REMARK   56  A    between atoms: _141  and  _142
REMARK   57  A    between atoms: _144  and  _146
REMARK   58  A    between atoms: _146  and  _147
REMARK   59  A    between atoms: _146  and  _149
REMARK   60  A    between atoms: _149  and  _150
REMARK   61  A    between atoms: _150  and  _151
REMARK   62  A    between atoms: _156  and  _158
REMARK   63  A    between atoms: _158  and  _159
REMARK   64  A    between atoms: _158  and  _161
REMARK   65  A    between atoms: _161  and  _162
REMARK   66  A    between atoms: _165  and  _167
REMARK   67  A    between atoms: _167  and  _168
REMARK   68  A    between atoms: _167  and  _170
REMARK   69  A    between atoms: _170  and  _171
REMARK   70  A    between atoms: _174  and  _176
REMARK   71  A    between atoms: _176  and  _177
REMARK   72  A    between atoms: _179  and  _181
REMARK   73  A    between atoms: _181  and  _182
REMARK   74  A    between atoms: _181  and  _184
REMARK   75  A    between atoms: _184  and  _185
REMARK   76  A    between atoms: _185  and  _186
REMARK   77  A    between atoms: _186  and  _187
REMARK   78  A    between atoms: _196  and  _198
REMARK   79  A    between atoms: _198  and  _199
REMARK   80  A    between atoms: _198  and  _201
REMARK   81  A    between atoms: _201  and  _202
REMARK   82  A    between atoms: _207  and  _208
REMARK   83  A    between atoms: _211  and  _212
REMARK   84  A    between atoms: _217  and  _219
REMARK   85  A    between atoms: _219  and  _220
REMARK   86  A    between atoms: _219  and  _222
REMARK   87  A    between atoms: _222  and  _223
REMARK   88  A    between atoms: _226  and  _228
REMARK   89  A    between atoms: _228  and  _229
REMARK   90  A    between atoms: _228  and  _231
REMARK   91  A    between atoms: _231  and  _232
REMARK   92  A    between atoms: _237  and  _239
REMARK   93  A    between atoms: _239  and  _240
REMARK   94  A    between atoms: _239  and  _242
REMARK   95  A    between atoms: _242  and  _243
REMARK   96  A    between atoms: _253  and  _255
REMARK   97  A    between atoms: _255  and  _256
REMARK   98  A    between atoms: _255  and  _258
REMARK   99  A    between atoms: _258  and  _259
REMARK                            x       y       z     vdW  Elec       q    Type
REMARK                         _______ _______ _______ _____ _____    ______ ____
ROOT
ATOM      1  O   HOH     1       0.185   1.933   6.122  0.00  0.00    +0.000 OA
ENDROOT
TORSDOF 0
