REMARK  Name = ../refined-set-2016/3mhw/3mhw_pocket.pdb
REMARK  141 active torsions:
REMARK  status: ('A' for Active; 'I' for Inactive)
REMARK    1  A    between atoms: _1  and  _5
REMARK    2  A    between atoms: _5  and  _6
REMARK    3  A    between atoms: _5  and  _8
REMARK    4  A    between atoms: _8  and  _9
REMARK    5  A    between atoms: _12  and  _14
REMARK    6  A    between atoms: _14  and  _15
REMARK    7  A    between atoms: _14  and  _17
REMARK    8  A    between atoms: _17  and  _18
REMARK    9  A    between atoms: _21  and  _23
REMARK   10  A    between atoms: _23  and  _24
REMARK   11  A    between atoms: _23  and  _26
REMARK   12  A    between atoms: _28  and  _30
REMARK   13  A    between atoms: _30  and  _31
REMARK   14  A    between atoms: _30  and  _33
REMARK   15  A    between atoms: _33  and  _34
REMARK   16  A    between atoms: _39  and  _41
REMARK   17  A    between atoms: _41  and  _42
REMARK   18  A    between atoms: _41  and  _44
REMARK   19  A    between atoms: _44  and  _45
REMARK   20  A    between atoms: _50  and  _52
REMARK   21  A    between atoms: _52  and  _53
REMARK   22  A    between atoms: _52  and  _55
REMARK   23  A    between atoms: _55  and  _56
REMARK   24  A    between atoms: _59  and  _61
REMARK   25  A    between atoms: _61  and  _62
REMARK   26  A    between atoms: _61  and  _64
REMARK   27  A    between atoms: _64  and  _65
REMARK   28  A    between atoms: _68  and  _70
REMARK   29  A    between atoms: _70  and  _71
REMARK   30  A    between atoms: _70  and  _73
REMARK   31  A    between atoms: _73  and  _74
REMARK   32  A    between atoms: _74  and  _75
REMARK   33  A    between atoms: _75  and  _76
REMARK   34  A    between atoms: _76  and  _77
REMARK   35  A    between atoms: _81  and  _83
REMARK   36  A    between atoms: _83  and  _84
REMARK   37  A    between atoms: _83  and  _86
REMARK   38  A    between atoms: _86  and  _87
REMARK   39  A    between atoms: _89  and  _91
REMARK   40  A    between atoms: _91  and  _92
REMARK   41  A    between atoms: _91  and  _94
REMARK   42  A    between atoms: _94  and  _95
REMARK   43  A    between atoms: _100  and  _101
REMARK   44  A    between atoms: _103  and  _105
REMARK   45  A    between atoms: _105  and  _106
REMARK   46  A    between atoms: _105  and  _108
REMARK   47  A    between atoms: _108  and  _109
REMARK   48  A    between atoms: _114  and  _115
REMARK   49  A    between atoms: _117  and  _119
REMARK   50  A    between atoms: _119  and  _120
REMARK   51  A    between atoms: _123  and  _125
REMARK   52  A    between atoms: _125  and  _126
REMARK   53  A    between atoms: _129  and  _131
REMARK   54  A    between atoms: _131  and  _132
REMARK   55  A    between atoms: _131  and  _134
REMARK   56  A    between atoms: _134  and  _135
REMARK   57  A    between atoms: _138  and  _140
REMARK   58  A    between atoms: _140  and  _141
REMARK   59  A    between atoms: _140  and  _143
REMARK   60  A    between atoms: _143  and  _144
REMARK   61  A    between atoms: _147  and  _149
REMARK   62  A    between atoms: _149  and  _150
REMARK   63  A    between atoms: _149  and  _152
REMARK   64  A    between atoms: _152  and  _153
REMARK   65  A    between atoms: _155  and  _157
REMARK   66  A    between atoms: _157  and  _158
REMARK   67  A    between atoms: _157  and  _160
REMARK   68  A    between atoms: _160  and  _161
REMARK   69  A    between atoms: _161  and  _280
REMARK   70  A    between atoms: _162  and  _164
REMARK   71  A    between atoms: _164  and  _165
REMARK   72  A    between atoms: _164  and  _167
REMARK   73  A    between atoms: _167  and  _168
REMARK   74  A    between atoms: _168  and  _169
REMARK   75  A    between atoms: _174  and  _176
REMARK   76  A    between atoms: _176  and  _177
REMARK   77  A    between atoms: _179  and  _181
REMARK   78  A    between atoms: _181  and  _182
REMARK   79  A    between atoms: _181  and  _184
REMARK   80  A    between atoms: _184  and  _185
REMARK   81  A    between atoms: _188  and  _190
REMARK   82  A    between atoms: _190  and  _191
REMARK   83  A    between atoms: _190  and  _193
REMARK   84  A    between atoms: _193  and  _194
REMARK   85  A    between atoms: _196  and  _198
REMARK   86  A    between atoms: _198  and  _199
REMARK   87  A    between atoms: _201  and  _203
REMARK   88  A    between atoms: _203  and  _204
REMARK   89  A    between atoms: _206  and  _208
REMARK   90  A    between atoms: _208  and  _209
REMARK   91  A    between atoms: _208  and  _211
REMARK   92  A    between atoms: _211  and  _212
REMARK   93  A    between atoms: _215  and  _217
REMARK   94  A    between atoms: _217  and  _218
REMARK   95  A    between atoms: _217  and  _220
REMARK   96  A    between atoms: _223  and  _225
REMARK   97  A    between atoms: _225  and  _226
REMARK   98  A    between atoms: _225  and  _228
REMARK   99  A    between atoms: _228  and  _229
REMARK  100  A    between atoms: _231  and  _233
REMARK  101  A    between atoms: _233  and  _234
REMARK  102  A    between atoms: _233  and  _236
REMARK  103  A    between atoms: _236  and  _237
REMARK  104  A    between atoms: _247  and  _249
REMARK  105  A    between atoms: _249  and  _250
REMARK  106  A    between atoms: _252  and  _254
REMARK  107  A    between atoms: _254  and  _255
REMARK  108  A    between atoms: _254  and  _257
REMARK  109  A    between atoms: _257  and  _258
REMARK  110  A    between atoms: _258  and  _259
REMARK  111  A    between atoms: _259  and  _260
REMARK  112  A    between atoms: _269  and  _271
REMARK  113  A    between atoms: _271  and  _272
REMARK  114  A    between atoms: _274  and  _276
REMARK  115  A    between atoms: _276  and  _277
REMARK  116  A    between atoms: _276  and  _279
REMARK  117  A    between atoms: _279  and  _280
REMARK  118  A    between atoms: _281  and  _283
REMARK  119  A    between atoms: _283  and  _284
REMARK  120  A    between atoms: _287  and  _289
REMARK  121  A    between atoms: _289  and  _290
REMARK  122  A    between atoms: _289  and  _292
REMARK  123  A    between atoms: _292  and  _293
REMARK  124  A    between atoms: _296  and  _298
REMARK  125  A    between atoms: _298  and  _299
REMARK  126  A    between atoms: _298  and  _301
REMARK  127  A    between atoms: _301  and  _302
REMARK  128  A    between atoms: _302  and  _303
REMARK  129  A    between atoms: _303  and  _304
REMARK  130  A    between atoms: _304  and  _305
REMARK  131  A    between atoms: _310  and  _311
REMARK  132  A    between atoms: _316  and  _318
REMARK  133  A    between atoms: _318  and  _319
REMARK  134  A    between atoms: _321  and  _323
REMARK  135  A    between atoms: _323  and  _324
REMARK  136  A    between atoms: _323  and  _326
REMARK  137  A    between atoms: _329  and  _331
REMARK  138  A    between atoms: _331  and  _332
REMARK  139  A    between atoms: _331  and  _334
REMARK  140  A    between atoms: _334  and  _335
REMARK  141  A    between atoms: _340  and  _341
REMARK                            x       y       z     vdW  Elec       q    Type
REMARK                         _______ _______ _______ _____ _____    ______ ____
ROOT
ATOM      1  C   ILE A   1     -26.487 -27.492   9.131  0.00  0.00    +0.202 C 
ATOM      2  N   ILE A   2     -27.473 -27.407  10.025  0.00  0.00    -0.301 N 
ATOM      3  H   ILE A   2     -28.141 -26.614   9.947  0.00  0.00    +0.150 HD
ATOM      4  O   ILE A   1     -25.528 -28.258   9.246  0.00  0.00    -0.277 OA
ENDROOT
BRANCH   1   5
ATOM      5  CA  ILE A   1     -26.549 -26.532   7.951  0.00  0.00    +0.013 C 
BRANCH   5   6
ATOM      6  N   ILE A   1     -25.374 -25.609   7.981  0.00  0.00    +0.387 N 
ATOM      7  H1  ILE A   1     -25.385 -25.064   8.867  0.00  0.00    -0.089 HD
ATOM      8  H2  ILE A   1     -24.497 -26.165   7.925  0.00  0.00    -0.089 HD
ATOM      9  H3  ILE A   1     -25.425 -24.958   7.172  0.00  0.00    -0.089 HD
ENDBRANCH   5   6
BRANCH   5  10
ATOM     10  CB  ILE A   1     -26.592 -27.314   6.618  0.00  0.00    -0.011 C 
ATOM     11  CG2 ILE A   1     -27.717 -28.328   6.613  0.00  0.00    -0.002 C 
BRANCH  10  12
ATOM     12  CG1 ILE A   1     -26.601 -26.361   5.406  0.00  0.00    -0.002 C 
ATOM     13  CD1 ILE A   1     -27.880 -25.555   5.250  0.00  0.00    -0.000 C 
ENDBRANCH  10  12
ENDBRANCH   5  10
ENDBRANCH   1   5
BRANCH   2  14
ATOM     14  CA  ILE A   2     -27.666 -28.379  11.119  0.00  0.00    +0.137 C 
BRANCH  14  15
ATOM     15  CB  ILE A   2     -28.662 -27.865  12.191  0.00  0.00    +0.026 C 
ATOM     16  CG2 ILE A   2     -28.722 -28.822  13.385  0.00  0.00    +0.002 C 
BRANCH  15  17
ATOM     17  CG1 ILE A   2     -28.331 -26.437  12.659  0.00  0.00    +0.002 C 
ATOM     18  CD1 ILE A   2     -26.908 -26.229  13.142  0.00  0.00    +0.000 C 
ENDBRANCH  15  17
ENDBRANCH  14  15
BRANCH  14  19
ATOM     19  C   ILE A   2     -28.315 -29.619  10.506  0.00  0.00    +0.227 C 
ATOM     20  O   ILE A   2     -29.304 -29.494   9.795  0.00  0.00    -0.286 OA
ENDBRANCH  14  19
ENDBRANCH   2  14
TORSDOF 8
REMARK  Name = ../refined-set-2016/3mhw/3mhw_pocket.pdb
REMARK  141 active torsions:
REMARK  status: ('A' for Active; 'I' for Inactive)
REMARK    1  A    between atoms: _1  and  _5
REMARK    2  A    between atoms: _5  and  _6
REMARK    3  A    between atoms: _5  and  _8
REMARK    4  A    between atoms: _8  and  _9
REMARK    5  A    between atoms: _12  and  _14
REMARK    6  A    between atoms: _14  and  _15
REMARK    7  A    between atoms: _14  and  _17
REMARK    8  A    between atoms: _17  and  _18
REMARK    9  A    between atoms: _21  and  _23
REMARK   10  A    between atoms: _23  and  _24
REMARK   11  A    between atoms: _23  and  _26
REMARK   12  A    between atoms: _28  and  _30
REMARK   13  A    between atoms: _30  and  _31
REMARK   14  A    between atoms: _30  and  _33
REMARK   15  A    between atoms: _33  and  _34
REMARK   16  A    between atoms: _39  and  _41
REMARK   17  A    between atoms: _41  and  _42
REMARK   18  A    between atoms: _41  and  _44
REMARK   19  A    between atoms: _44  and  _45
REMARK   20  A    between atoms: _50  and  _52
REMARK   21  A    between atoms: _52  and  _53
REMARK   22  A    between atoms: _52  and  _55
REMARK   23  A    between atoms: _55  and  _56
REMARK   24  A    between atoms: _59  and  _61
REMARK   25  A    between atoms: _61  and  _62
REMARK   26  A    between atoms: _61  and  _64
REMARK   27  A    between atoms: _64  and  _65
REMARK   28  A    between atoms: _68  and  _70
REMARK   29  A    between atoms: _70  and  _71
REMARK   30  A    between atoms: _70  and  _73
REMARK   31  A    between atoms: _73  and  _74
REMARK   32  A    between atoms: _74  and  _75
REMARK   33  A    between atoms: _75  and  _76
REMARK   34  A    between atoms: _76  and  _77
REMARK   35  A    between atoms: _81  and  _83
REMARK   36  A    between atoms: _83  and  _84
REMARK   37  A    between atoms: _83  and  _86
REMARK   38  A    between atoms: _86  and  _87
REMARK   39  A    between atoms: _89  and  _91
REMARK   40  A    between atoms: _91  and  _92
REMARK   41  A    between atoms: _91  and  _94
REMARK   42  A    between atoms: _94  and  _95
REMARK   43  A    between atoms: _100  and  _101
REMARK   44  A    between atoms: _103  and  _105
REMARK   45  A    between atoms: _105  and  _106
REMARK   46  A    between atoms: _105  and  _108
REMARK   47  A    between atoms: _108  and  _109
REMARK   48  A    between atoms: _114  and  _115
REMARK   49  A    between atoms: _117  and  _119
REMARK   50  A    between atoms: _119  and  _120
REMARK   51  A    between atoms: _123  and  _125
REMARK   52  A    between atoms: _125  and  _126
REMARK   53  A    between atoms: _129  and  _131
REMARK   54  A    between atoms: _131  and  _132
REMARK   55  A    between atoms: _131  and  _134
REMARK   56  A    between atoms: _134  and  _135
REMARK   57  A    between atoms: _138  and  _140
REMARK   58  A    between atoms: _140  and  _141
REMARK   59  A    between atoms: _140  and  _143
REMARK   60  A    between atoms: _143  and  _144
REMARK   61  A    between atoms: _147  and  _149
REMARK   62  A    between atoms: _149  and  _150
REMARK   63  A    between atoms: _149  and  _152
REMARK   64  A    between atoms: _152  and  _153
REMARK   65  A    between atoms: _155  and  _157
REMARK   66  A    between atoms: _157  and  _158
REMARK   67  A    between atoms: _157  and  _160
REMARK   68  A    between atoms: _160  and  _161
REMARK   69  A    between atoms: _161  and  _280
REMARK   70  A    between atoms: _162  and  _164
REMARK   71  A    between atoms: _164  and  _165
REMARK   72  A    between atoms: _164  and  _167
REMARK   73  A    between atoms: _167  and  _168
REMARK   74  A    between atoms: _168  and  _169
REMARK   75  A    between atoms: _174  and  _176
REMARK   76  A    between atoms: _176  and  _177
REMARK   77  A    between atoms: _179  and  _181
REMARK   78  A    between atoms: _181  and  _182
REMARK   79  A    between atoms: _181  and  _184
REMARK   80  A    between atoms: _184  and  _185
REMARK   81  A    between atoms: _188  and  _190
REMARK   82  A    between atoms: _190  and  _191
REMARK   83  A    between atoms: _190  and  _193
REMARK   84  A    between atoms: _193  and  _194
REMARK   85  A    between atoms: _196  and  _198
REMARK   86  A    between atoms: _198  and  _199
REMARK   87  A    between atoms: _201  and  _203
REMARK   88  A    between atoms: _203  and  _204
REMARK   89  A    between atoms: _206  and  _208
REMARK   90  A    between atoms: _208  and  _209
REMARK   91  A    between atoms: _208  and  _211
REMARK   92  A    between atoms: _211  and  _212
REMARK   93  A    between atoms: _215  and  _217
REMARK   94  A    between atoms: _217  and  _218
REMARK   95  A    between atoms: _217  and  _220
REMARK   96  A    between atoms: _223  and  _225
REMARK   97  A    between atoms: _225  and  _226
REMARK   98  A    between atoms: _225  and  _228
REMARK   99  A    between atoms: _228  and  _229
REMARK  100  A    between atoms: _231  and  _233
REMARK  101  A    between atoms: _233  and  _234
REMARK  102  A    between atoms: _233  and  _236
REMARK  103  A    between atoms: _236  and  _237
REMARK  104  A    between atoms: _247  and  _249
REMARK  105  A    between atoms: _249  and  _250
REMARK  106  A    between atoms: _252  and  _254
REMARK  107  A    between atoms: _254  and  _255
REMARK  108  A    between atoms: _254  and  _257
REMARK  109  A    between atoms: _257  and  _258
REMARK  110  A    between atoms: _258  and  _259
REMARK  111  A    between atoms: _259  and  _260
REMARK  112  A    between atoms: _269  and  _271
REMARK  113  A    between atoms: _271  and  _272
REMARK  114  A    between atoms: _274  and  _276
REMARK  115  A    between atoms: _276  and  _277
REMARK  116  A    between atoms: _276  and  _279
REMARK  117  A    between atoms: _279  and  _280
REMARK  118  A    between atoms: _281  and  _283
REMARK  119  A    between atoms: _283  and  _284
REMARK  120  A    between atoms: _287  and  _289
REMARK  121  A    between atoms: _289  and  _290
REMARK  122  A    between atoms: _289  and  _292
REMARK  123  A    between atoms: _292  and  _293
REMARK  124  A    between atoms: _296  and  _298
REMARK  125  A    between atoms: _298  and  _299
REMARK  126  A    between atoms: _298  and  _301
REMARK  127  A    between atoms: _301  and  _302
REMARK  128  A    between atoms: _302  and  _303
REMARK  129  A    between atoms: _303  and  _304
REMARK  130  A    between atoms: _304  and  _305
REMARK  131  A    between atoms: _310  and  _311
REMARK  132  A    between atoms: _316  and  _318
REMARK  133  A    between atoms: _318  and  _319
REMARK  134  A    between atoms: _321  and  _323
REMARK  135  A    between atoms: _323  and  _324
REMARK  136  A    between atoms: _323  and  _326
REMARK  137  A    between atoms: _329  and  _331
REMARK  138  A    between atoms: _331  and  _332
REMARK  139  A    between atoms: _331  and  _334
REMARK  140  A    between atoms: _334  and  _335
REMARK  141  A    between atoms: _340  and  _341
REMARK                            x       y       z     vdW  Elec       q    Type
REMARK                         _______ _______ _______ _____ _____    ______ ____
ROOT
ATOM      1  CA  CYS A   1     -21.744 -16.010   2.917  0.00  0.00    +0.145 C 
ENDROOT
BRANCH   1   2
ATOM      2  N   CYS A   1     -20.370 -15.568   3.123  0.00  0.00    -0.238 NA
ATOM      3  H   CYS A   1     -19.701 -15.601   2.327  0.00  0.00    +0.142 HD
ENDBRANCH   1   2
BRANCH   1   4
ATOM      4  CB  CYS A   1     -22.694 -14.817   2.778  0.00  0.00    +0.094 C 
ATOM      5  SG  CYS A   1     -23.251 -14.021   4.307  0.00  0.00    -0.080 S 
ENDBRANCH   1   4
BRANCH   1   6
ATOM      6  C   CYS A   1     -21.826 -16.796   1.633  0.00  0.00    +0.225 C 
ATOM      7  O   CYS A   1     -20.888 -16.807   0.827  0.00  0.00    -0.287 OA
ENDBRANCH   1   6
TORSDOF 3
REMARK  Name = ../refined-set-2016/3mhw/3mhw_pocket.pdb
REMARK  141 active torsions:
REMARK  status: ('A' for Active; 'I' for Inactive)
REMARK    1  A    between atoms: _1  and  _5
REMARK    2  A    between atoms: _5  and  _6
REMARK    3  A    between atoms: _5  and  _8
REMARK    4  A    between atoms: _8  and  _9
REMARK    5  A    between atoms: _12  and  _14
REMARK    6  A    between atoms: _14  and  _15
REMARK    7  A    between atoms: _14  and  _17
REMARK    8  A    between atoms: _17  and  _18
REMARK    9  A    between atoms: _21  and  _23
REMARK   10  A    between atoms: _23  and  _24
REMARK   11  A    between atoms: _23  and  _26
REMARK   12  A    between atoms: _28  and  _30
REMARK   13  A    between atoms: _30  and  _31
REMARK   14  A    between atoms: _30  and  _33
REMARK   15  A    between atoms: _33  and  _34
REMARK   16  A    between atoms: _39  and  _41
REMARK   17  A    between atoms: _41  and  _42
REMARK   18  A    between atoms: _41  and  _44
REMARK   19  A    between atoms: _44  and  _45
REMARK   20  A    between atoms: _50  and  _52
REMARK   21  A    between atoms: _52  and  _53
REMARK   22  A    between atoms: _52  and  _55
REMARK   23  A    between atoms: _55  and  _56
REMARK   24  A    between atoms: _59  and  _61
REMARK   25  A    between atoms: _61  and  _62
REMARK   26  A    between atoms: _61  and  _64
REMARK   27  A    between atoms: _64  and  _65
REMARK   28  A    between atoms: _68  and  _70
REMARK   29  A    between atoms: _70  and  _71
REMARK   30  A    between atoms: _70  and  _73
REMARK   31  A    between atoms: _73  and  _74
REMARK   32  A    between atoms: _74  and  _75
REMARK   33  A    between atoms: _75  and  _76
REMARK   34  A    between atoms: _76  and  _77
REMARK   35  A    between atoms: _81  and  _83
REMARK   36  A    between atoms: _83  and  _84
REMARK   37  A    between atoms: _83  and  _86
REMARK   38  A    between atoms: _86  and  _87
REMARK   39  A    between atoms: _89  and  _91
REMARK   40  A    between atoms: _91  and  _92
REMARK   41  A    between atoms: _91  and  _94
REMARK   42  A    between atoms: _94  and  _95
REMARK   43  A    between atoms: _100  and  _101
REMARK   44  A    between atoms: _103  and  _105
REMARK   45  A    between atoms: _105  and  _106
REMARK   46  A    between atoms: _105  and  _108
REMARK   47  A    between atoms: _108  and  _109
REMARK   48  A    between atoms: _114  and  _115
REMARK   49  A    between atoms: _117  and  _119
REMARK   50  A    between atoms: _119  and  _120
REMARK   51  A    between atoms: _123  and  _125
REMARK   52  A    between atoms: _125  and  _126
REMARK   53  A    between atoms: _129  and  _131
REMARK   54  A    between atoms: _131  and  _132
REMARK   55  A    between atoms: _131  and  _134
REMARK   56  A    between atoms: _134  and  _135
REMARK   57  A    between atoms: _138  and  _140
REMARK   58  A    between atoms: _140  and  _141
REMARK   59  A    between atoms: _140  and  _143
REMARK   60  A    between atoms: _143  and  _144
REMARK   61  A    between atoms: _147  and  _149
REMARK   62  A    between atoms: _149  and  _150
REMARK   63  A    between atoms: _149  and  _152
REMARK   64  A    between atoms: _152  and  _153
REMARK   65  A    between atoms: _155  and  _157
REMARK   66  A    between atoms: _157  and  _158
REMARK   67  A    between atoms: _157  and  _160
REMARK   68  A    between atoms: _160  and  _161
REMARK   69  A    between atoms: _161  and  _280
REMARK   70  A    between atoms: _162  and  _164
REMARK   71  A    between atoms: _164  and  _165
REMARK   72  A    between atoms: _164  and  _167
REMARK   73  A    between atoms: _167  and  _168
REMARK   74  A    between atoms: _168  and  _169
REMARK   75  A    between atoms: _174  and  _176
REMARK   76  A    between atoms: _176  and  _177
REMARK   77  A    between atoms: _179  and  _181
REMARK   78  A    between atoms: _181  and  _182
REMARK   79  A    between atoms: _181  and  _184
REMARK   80  A    between atoms: _184  and  _185
REMARK   81  A    between atoms: _188  and  _190
REMARK   82  A    between atoms: _190  and  _191
REMARK   83  A    between atoms: _190  and  _193
REMARK   84  A    between atoms: _193  and  _194
REMARK   85  A    between atoms: _196  and  _198
REMARK   86  A    between atoms: _198  and  _199
REMARK   87  A    between atoms: _201  and  _203
REMARK   88  A    between atoms: _203  and  _204
REMARK   89  A    between atoms: _206  and  _208
REMARK   90  A    between atoms: _208  and  _209
REMARK   91  A    between atoms: _208  and  _211
REMARK   92  A    between atoms: _211  and  _212
REMARK   93  A    between atoms: _215  and  _217
REMARK   94  A    between atoms: _217  and  _218
REMARK   95  A    between atoms: _217  and  _220
REMARK   96  A    between atoms: _223  and  _225
REMARK   97  A    between atoms: _225  and  _226
REMARK   98  A    between atoms: _225  and  _228
REMARK   99  A    between atoms: _228  and  _229
REMARK  100  A    between atoms: _231  and  _233
REMARK  101  A    between atoms: _233  and  _234
REMARK  102  A    between atoms: _233  and  _236
REMARK  103  A    between atoms: _236  and  _237
REMARK  104  A    between atoms: _247  and  _249
REMARK  105  A    between atoms: _249  and  _250
REMARK  106  A    between atoms: _252  and  _254
REMARK  107  A    between atoms: _254  and  _255
REMARK  108  A    between atoms: _254  and  _257
REMARK  109  A    between atoms: _257  and  _258
REMARK  110  A    between atoms: _258  and  _259
REMARK  111  A    between atoms: _259  and  _260
REMARK  112  A    between atoms: _269  and  _271
REMARK  113  A    between atoms: _271  and  _272
REMARK  114  A    between atoms: _274  and  _276
REMARK  115  A    between atoms: _276  and  _277
REMARK  116  A    between atoms: _276  and  _279
REMARK  117  A    between atoms: _279  and  _280
REMARK  118  A    between atoms: _281  and  _283
REMARK  119  A    between atoms: _283  and  _284
REMARK  120  A    between atoms: _287  and  _289
REMARK  121  A    between atoms: _289  and  _290
REMARK  122  A    between atoms: _289  and  _292
REMARK  123  A    between atoms: _292  and  _293
REMARK  124  A    between atoms: _296  and  _298
REMARK  125  A    between atoms: _298  and  _299
REMARK  126  A    between atoms: _298  and  _301
REMARK  127  A    between atoms: _301  and  _302
REMARK  128  A    between atoms: _302  and  _303
REMARK  129  A    between atoms: _303  and  _304
REMARK  130  A    between atoms: _304  and  _305
REMARK  131  A    between atoms: _310  and  _311
REMARK  132  A    between atoms: _316  and  _318
REMARK  133  A    between atoms: _318  and  _319
REMARK  134  A    between atoms: _321  and  _323
REMARK  135  A    between atoms: _323  and  _324
REMARK  136  A    between atoms: _323  and  _326
REMARK  137  A    between atoms: _329  and  _331
REMARK  138  A    between atoms: _331  and  _332
REMARK  139  A    between atoms: _331  and  _334
REMARK  140  A    between atoms: _334  and  _335
REMARK  141  A    between atoms: _340  and  _341
REMARK                            x       y       z     vdW  Elec       q    Type
REMARK                         _______ _______ _______ _____ _____    ______ ____
ROOT
ATOM      1  CB  HIS A   1     -27.609  -8.949   6.809  0.00  0.00    +0.072 C 
ENDROOT
BRANCH   1   2
ATOM      2  CG  HIS A   1     -27.420 -10.424   6.942  0.00  0.00    +0.082 A 
ATOM      3  CD2 HIS A   1     -26.456 -11.146   7.562  0.00  0.00    +0.115 A 
ATOM      4  NE2 HIS A   1     -26.796 -12.469   7.429  0.00  0.00    -0.221 NA
ATOM      5  CE1 HIS A   1     -27.932 -12.555   6.756  0.00  0.00    +0.199 A 
ATOM      6  ND1 HIS A   1     -28.334 -11.333   6.460  0.00  0.00    -0.227 NA
ENDBRANCH   1   2
BRANCH   1   7
ATOM      7  CA  HIS A   1     -26.699  -8.285   5.765  0.00  0.00    +0.139 C 
BRANCH   7   8
ATOM      8  N   HIS A   1     -27.283  -8.309   4.417  0.00  0.00    -0.239 NA
ATOM      9  H   HIS A   1     -28.124  -8.889   4.220  0.00  0.00    +0.142 HD
ENDBRANCH   7   8
BRANCH   7  10
ATOM     10  C   HIS A   1     -25.288  -8.846   5.787  0.00  0.00    +0.224 C 
ATOM     11  O   HIS A   1     -24.505  -8.542   6.689  0.00  0.00    -0.287 OA
ENDBRANCH   7  10
ENDBRANCH   1   7
TORSDOF 4
REMARK  Name = ../refined-set-2016/3mhw/3mhw_pocket.pdb
REMARK  141 active torsions:
REMARK  status: ('A' for Active; 'I' for Inactive)
REMARK    1  A    between atoms: _1  and  _5
REMARK    2  A    between atoms: _5  and  _6
REMARK    3  A    between atoms: _5  and  _8
REMARK    4  A    between atoms: _8  and  _9
REMARK    5  A    between atoms: _12  and  _14
REMARK    6  A    between atoms: _14  and  _15
REMARK    7  A    between atoms: _14  and  _17
REMARK    8  A    between atoms: _17  and  _18
REMARK    9  A    between atoms: _21  and  _23
REMARK   10  A    between atoms: _23  and  _24
REMARK   11  A    between atoms: _23  and  _26
REMARK   12  A    between atoms: _28  and  _30
REMARK   13  A    between atoms: _30  and  _31
REMARK   14  A    between atoms: _30  and  _33
REMARK   15  A    between atoms: _33  and  _34
REMARK   16  A    between atoms: _39  and  _41
REMARK   17  A    between atoms: _41  and  _42
REMARK   18  A    between atoms: _41  and  _44
REMARK   19  A    between atoms: _44  and  _45
REMARK   20  A    between atoms: _50  and  _52
REMARK   21  A    between atoms: _52  and  _53
REMARK   22  A    between atoms: _52  and  _55
REMARK   23  A    between atoms: _55  and  _56
REMARK   24  A    between atoms: _59  and  _61
REMARK   25  A    between atoms: _61  and  _62
REMARK   26  A    between atoms: _61  and  _64
REMARK   27  A    between atoms: _64  and  _65
REMARK   28  A    between atoms: _68  and  _70
REMARK   29  A    between atoms: _70  and  _71
REMARK   30  A    between atoms: _70  and  _73
REMARK   31  A    between atoms: _73  and  _74
REMARK   32  A    between atoms: _74  and  _75
REMARK   33  A    between atoms: _75  and  _76
REMARK   34  A    between atoms: _76  and  _77
REMARK   35  A    between atoms: _81  and  _83
REMARK   36  A    between atoms: _83  and  _84
REMARK   37  A    between atoms: _83  and  _86
REMARK   38  A    between atoms: _86  and  _87
REMARK   39  A    between atoms: _89  and  _91
REMARK   40  A    between atoms: _91  and  _92
REMARK   41  A    between atoms: _91  and  _94
REMARK   42  A    between atoms: _94  and  _95
REMARK   43  A    between atoms: _100  and  _101
REMARK   44  A    between atoms: _103  and  _105
REMARK   45  A    between atoms: _105  and  _106
REMARK   46  A    between atoms: _105  and  _108
REMARK   47  A    between atoms: _108  and  _109
REMARK   48  A    between atoms: _114  and  _115
REMARK   49  A    between atoms: _117  and  _119
REMARK   50  A    between atoms: _119  and  _120
REMARK   51  A    between atoms: _123  and  _125
REMARK   52  A    between atoms: _125  and  _126
REMARK   53  A    between atoms: _129  and  _131
REMARK   54  A    between atoms: _131  and  _132
REMARK   55  A    between atoms: _131  and  _134
REMARK   56  A    between atoms: _134  and  _135
REMARK   57  A    between atoms: _138  and  _140
REMARK   58  A    between atoms: _140  and  _141
REMARK   59  A    between atoms: _140  and  _143
REMARK   60  A    between atoms: _143  and  _144
REMARK   61  A    between atoms: _147  and  _149
REMARK   62  A    between atoms: _149  and  _150
REMARK   63  A    between atoms: _149  and  _152
REMARK   64  A    between atoms: _152  and  _153
REMARK   65  A    between atoms: _155  and  _157
REMARK   66  A    between atoms: _157  and  _158
REMARK   67  A    between atoms: _157  and  _160
REMARK   68  A    between atoms: _160  and  _161
REMARK   69  A    between atoms: _161  and  _280
REMARK   70  A    between atoms: _162  and  _164
REMARK   71  A    between atoms: _164  and  _165
REMARK   72  A    between atoms: _164  and  _167
REMARK   73  A    between atoms: _167  and  _168
REMARK   74  A    between atoms: _168  and  _169
REMARK   75  A    between atoms: _174  and  _176
REMARK   76  A    between atoms: _176  and  _177
REMARK   77  A    between atoms: _179  and  _181
REMARK   78  A    between atoms: _181  and  _182
REMARK   79  A    between atoms: _181  and  _184
REMARK   80  A    between atoms: _184  and  _185
REMARK   81  A    between atoms: _188  and  _190
REMARK   82  A    between atoms: _190  and  _191
REMARK   83  A    between atoms: _190  and  _193
REMARK   84  A    between atoms: _193  and  _194
REMARK   85  A    between atoms: _196  and  _198
REMARK   86  A    between atoms: _198  and  _199
REMARK   87  A    between atoms: _201  and  _203
REMARK   88  A    between atoms: _203  and  _204
REMARK   89  A    between atoms: _206  and  _208
REMARK   90  A    between atoms: _208  and  _209
REMARK   91  A    between atoms: _208  and  _211
REMARK   92  A    between atoms: _211  and  _212
REMARK   93  A    between atoms: _215  and  _217
REMARK   94  A    between atoms: _217  and  _218
REMARK   95  A    between atoms: _217  and  _220
REMARK   96  A    between atoms: _223  and  _225
REMARK   97  A    between atoms: _225  and  _226
REMARK   98  A    between atoms: _225  and  _228
REMARK   99  A    between atoms: _228  and  _229
REMARK  100  A    between atoms: _231  and  _233
REMARK  101  A    between atoms: _233  and  _234
REMARK  102  A    between atoms: _233  and  _236
REMARK  103  A    between atoms: _236  and  _237
REMARK  104  A    between atoms: _247  and  _249
REMARK  105  A    between atoms: _249  and  _250
REMARK  106  A    between atoms: _252  and  _254
REMARK  107  A    between atoms: _254  and  _255
REMARK  108  A    between atoms: _254  and  _257
REMARK  109  A    between atoms: _257  and  _258
REMARK  110  A    between atoms: _258  and  _259
REMARK  111  A    between atoms: _259  and  _260
REMARK  112  A    between atoms: _269  and  _271
REMARK  113  A    between atoms: _271  and  _272
REMARK  114  A    between atoms: _274  and  _276
REMARK  115  A    between atoms: _276  and  _277
REMARK  116  A    between atoms: _276  and  _279
REMARK  117  A    between atoms: _279  and  _280
REMARK  118  A    between atoms: _281  and  _283
REMARK  119  A    between atoms: _283  and  _284
REMARK  120  A    between atoms: _287  and  _289
REMARK  121  A    between atoms: _289  and  _290
REMARK  122  A    between atoms: _289  and  _292
REMARK  123  A    between atoms: _292  and  _293
REMARK  124  A    between atoms: _296  and  _298
REMARK  125  A    between atoms: _298  and  _299
REMARK  126  A    between atoms: _298  and  _301
REMARK  127  A    between atoms: _301  and  _302
REMARK  128  A    between atoms: _302  and  _303
REMARK  129  A    between atoms: _303  and  _304
REMARK  130  A    between atoms: _304  and  _305
REMARK  131  A    between atoms: _310  and  _311
REMARK  132  A    between atoms: _316  and  _318
REMARK  133  A    between atoms: _318  and  _319
REMARK  134  A    between atoms: _321  and  _323
REMARK  135  A    between atoms: _323  and  _324
REMARK  136  A    between atoms: _323  and  _326
REMARK  137  A    between atoms: _329  and  _331
REMARK  138  A    between atoms: _331  and  _332
REMARK  139  A    between atoms: _331  and  _334
REMARK  140  A    between atoms: _334  and  _335
REMARK  141  A    between atoms: _340  and  _341
REMARK                            x       y       z     vdW  Elec       q    Type
REMARK                         _______ _______ _______ _____ _____    ______ ____
ROOT
ATOM      1  CB  HIS A   1     -32.372  -8.872   7.876  0.00  0.00    +0.072 C 
ENDROOT
BRANCH   1   2
ATOM      2  CG  HIS A   1     -31.358  -9.164   8.943  0.00  0.00    +0.082 A 
ATOM      3  CD2 HIS A   1     -31.428  -9.936  10.053  0.00  0.00    +0.115 A 
ATOM      4  NE2 HIS A   1     -30.220  -9.834  10.699  0.00  0.00    -0.221 NA
ATOM      5  CE1 HIS A   1     -29.434  -9.026  10.011  0.00  0.00    +0.199 A 
ATOM      6  ND1 HIS A   1     -30.099  -8.604   8.950  0.00  0.00    -0.227 NA
ENDBRANCH   1   2
BRANCH   1   7
ATOM      7  CA  HIS A   1     -33.653  -8.221   8.413  0.00  0.00    +0.139 C 
BRANCH   7   8
ATOM      8  N   HIS A   1     -34.258  -9.073   9.428  0.00  0.00    -0.239 NA
ATOM      9  H   HIS A   1     -34.383 -10.086   9.226  0.00  0.00    +0.142 HD
ENDBRANCH   7   8
BRANCH   7  10
ATOM     10  C   HIS A   1     -34.694  -8.020   7.322  0.00  0.00    +0.224 C 
ATOM     11  O   HIS A   1     -35.161  -8.988   6.719  0.00  0.00    -0.287 OA
ENDBRANCH   7  10
ENDBRANCH   1   7
TORSDOF 4
REMARK  Name = ../refined-set-2016/3mhw/3mhw_pocket.pdb
REMARK  141 active torsions:
REMARK  status: ('A' for Active; 'I' for Inactive)
REMARK    1  A    between atoms: _1  and  _5
REMARK    2  A    between atoms: _5  and  _6
REMARK    3  A    between atoms: _5  and  _8
REMARK    4  A    between atoms: _8  and  _9
REMARK    5  A    between atoms: _12  and  _14
REMARK    6  A    between atoms: _14  and  _15
REMARK    7  A    between atoms: _14  and  _17
REMARK    8  A    between atoms: _17  and  _18
REMARK    9  A    between atoms: _21  and  _23
REMARK   10  A    between atoms: _23  and  _24
REMARK   11  A    between atoms: _23  and  _26
REMARK   12  A    between atoms: _28  and  _30
REMARK   13  A    between atoms: _30  and  _31
REMARK   14  A    between atoms: _30  and  _33
REMARK   15  A    between atoms: _33  and  _34
REMARK   16  A    between atoms: _39  and  _41
REMARK   17  A    between atoms: _41  and  _42
REMARK   18  A    between atoms: _41  and  _44
REMARK   19  A    between atoms: _44  and  _45
REMARK   20  A    between atoms: _50  and  _52
REMARK   21  A    between atoms: _52  and  _53
REMARK   22  A    between atoms: _52  and  _55
REMARK   23  A    between atoms: _55  and  _56
REMARK   24  A    between atoms: _59  and  _61
REMARK   25  A    between atoms: _61  and  _62
REMARK   26  A    between atoms: _61  and  _64
REMARK   27  A    between atoms: _64  and  _65
REMARK   28  A    between atoms: _68  and  _70
REMARK   29  A    between atoms: _70  and  _71
REMARK   30  A    between atoms: _70  and  _73
REMARK   31  A    between atoms: _73  and  _74
REMARK   32  A    between atoms: _74  and  _75
REMARK   33  A    between atoms: _75  and  _76
REMARK   34  A    between atoms: _76  and  _77
REMARK   35  A    between atoms: _81  and  _83
REMARK   36  A    between atoms: _83  and  _84
REMARK   37  A    between atoms: _83  and  _86
REMARK   38  A    between atoms: _86  and  _87
REMARK   39  A    between atoms: _89  and  _91
REMARK   40  A    between atoms: _91  and  _92
REMARK   41  A    between atoms: _91  and  _94
REMARK   42  A    between atoms: _94  and  _95
REMARK   43  A    between atoms: _100  and  _101
REMARK   44  A    between atoms: _103  and  _105
REMARK   45  A    between atoms: _105  and  _106
REMARK   46  A    between atoms: _105  and  _108
REMARK   47  A    between atoms: _108  and  _109
REMARK   48  A    between atoms: _114  and  _115
REMARK   49  A    between atoms: _117  and  _119
REMARK   50  A    between atoms: _119  and  _120
REMARK   51  A    between atoms: _123  and  _125
REMARK   52  A    between atoms: _125  and  _126
REMARK   53  A    between atoms: _129  and  _131
REMARK   54  A    between atoms: _131  and  _132
REMARK   55  A    between atoms: _131  and  _134
REMARK   56  A    between atoms: _134  and  _135
REMARK   57  A    between atoms: _138  and  _140
REMARK   58  A    between atoms: _140  and  _141
REMARK   59  A    between atoms: _140  and  _143
REMARK   60  A    between atoms: _143  and  _144
REMARK   61  A    between atoms: _147  and  _149
REMARK   62  A    between atoms: _149  and  _150
REMARK   63  A    between atoms: _149  and  _152
REMARK   64  A    between atoms: _152  and  _153
REMARK   65  A    between atoms: _155  and  _157
REMARK   66  A    between atoms: _157  and  _158
REMARK   67  A    between atoms: _157  and  _160
REMARK   68  A    between atoms: _160  and  _161
REMARK   69  A    between atoms: _161  and  _280
REMARK   70  A    between atoms: _162  and  _164
REMARK   71  A    between atoms: _164  and  _165
REMARK   72  A    between atoms: _164  and  _167
REMARK   73  A    between atoms: _167  and  _168
REMARK   74  A    between atoms: _168  and  _169
REMARK   75  A    between atoms: _174  and  _176
REMARK   76  A    between atoms: _176  and  _177
REMARK   77  A    between atoms: _179  and  _181
REMARK   78  A    between atoms: _181  and  _182
REMARK   79  A    between atoms: _181  and  _184
REMARK   80  A    between atoms: _184  and  _185
REMARK   81  A    between atoms: _188  and  _190
REMARK   82  A    between atoms: _190  and  _191
REMARK   83  A    between atoms: _190  and  _193
REMARK   84  A    between atoms: _193  and  _194
REMARK   85  A    between atoms: _196  and  _198
REMARK   86  A    between atoms: _198  and  _199
REMARK   87  A    between atoms: _201  and  _203
REMARK   88  A    between atoms: _203  and  _204
REMARK   89  A    between atoms: _206  and  _208
REMARK   90  A    between atoms: _208  and  _209
REMARK   91  A    between atoms: _208  and  _211
REMARK   92  A    between atoms: _211  and  _212
REMARK   93  A    between atoms: _215  and  _217
REMARK   94  A    between atoms: _217  and  _218
REMARK   95  A    between atoms: _217  and  _220
REMARK   96  A    between atoms: _223  and  _225
REMARK   97  A    between atoms: _225  and  _226
REMARK   98  A    between atoms: _225  and  _228
REMARK   99  A    between atoms: _228  and  _229
REMARK  100  A    between atoms: _231  and  _233
REMARK  101  A    between atoms: _233  and  _234
REMARK  102  A    between atoms: _233  and  _236
REMARK  103  A    between atoms: _236  and  _237
REMARK  104  A    between atoms: _247  and  _249
REMARK  105  A    between atoms: _249  and  _250
REMARK  106  A    between atoms: _252  and  _254
REMARK  107  A    between atoms: _254  and  _255
REMARK  108  A    between atoms: _254  and  _257
REMARK  109  A    between atoms: _257  and  _258
REMARK  110  A    between atoms: _258  and  _259
REMARK  111  A    between atoms: _259  and  _260
REMARK  112  A    between atoms: _269  and  _271
REMARK  113  A    between atoms: _271  and  _272
REMARK  114  A    between atoms: _274  and  _276
REMARK  115  A    between atoms: _276  and  _277
REMARK  116  A    between atoms: _276  and  _279
REMARK  117  A    between atoms: _279  and  _280
REMARK  118  A    between atoms: _281  and  _283
REMARK  119  A    between atoms: _283  and  _284
REMARK  120  A    between atoms: _287  and  _289
REMARK  121  A    between atoms: _289  and  _290
REMARK  122  A    between atoms: _289  and  _292
REMARK  123  A    between atoms: _292  and  _293
REMARK  124  A    between atoms: _296  and  _298
REMARK  125  A    between atoms: _298  and  _299
REMARK  126  A    between atoms: _298  and  _301
REMARK  127  A    between atoms: _301  and  _302
REMARK  128  A    between atoms: _302  and  _303
REMARK  129  A    between atoms: _303  and  _304
REMARK  130  A    between atoms: _304  and  _305
REMARK  131  A    between atoms: _310  and  _311
REMARK  132  A    between atoms: _316  and  _318
REMARK  133  A    between atoms: _318  and  _319
REMARK  134  A    between atoms: _321  and  _323
REMARK  135  A    between atoms: _323  and  _324
REMARK  136  A    between atoms: _323  and  _326
REMARK  137  A    between atoms: _329  and  _331
REMARK  138  A    between atoms: _331  and  _332
REMARK  139  A    between atoms: _331  and  _334
REMARK  140  A    between atoms: _334  and  _335
REMARK  141  A    between atoms: _340  and  _341
REMARK                            x       y       z     vdW  Elec       q    Type
REMARK                         _______ _______ _______ _____ _____    ______ ____
ROOT
ATOM      1  CA  ASP A   1     -32.316  -8.679   2.833  0.00  0.00    +0.144 C 
ENDROOT
BRANCH   1   2
ATOM      2  N   ASP A   1     -33.650  -8.105   2.666  0.00  0.00    -0.239 NA
ATOM      3  H   ASP A   1     -34.484  -8.669   2.925  0.00  0.00    +0.142 HD
ENDBRANCH   1   2
BRANCH   1   4
ATOM      4  C   ASP A   1     -31.907  -9.379   1.539  0.00  0.00    +0.225 C 
ATOM      5  O   ASP A   1     -32.002 -10.615   1.390  0.00  0.00    -0.287 OA
ENDBRANCH   1   4
BRANCH   1   6
ATOM      6  CB  ASP A   1     -32.305  -9.645   4.010  0.00  0.00    +0.139 C 
BRANCH   6   7
ATOM      7  CG  ASP A   1     -30.904  -9.952   4.499  0.00  0.00    +0.367 C 
ATOM      8  OD2 ASP A   1     -30.752 -10.869   5.340  0.00  0.00    -0.246 OA
ATOM      9  OD1 ASP A   1     -29.960  -9.264   4.073  0.00  0.00    -0.246 OA
ENDBRANCH   6   7
ENDBRANCH   1   6
TORSDOF 4
REMARK  Name = ../refined-set-2016/3mhw/3mhw_pocket.pdb
REMARK  141 active torsions:
REMARK  status: ('A' for Active; 'I' for Inactive)
REMARK    1  A    between atoms: _1  and  _5
REMARK    2  A    between atoms: _5  and  _6
REMARK    3  A    between atoms: _5  and  _8
REMARK    4  A    between atoms: _8  and  _9
REMARK    5  A    between atoms: _12  and  _14
REMARK    6  A    between atoms: _14  and  _15
REMARK    7  A    between atoms: _14  and  _17
REMARK    8  A    between atoms: _17  and  _18
REMARK    9  A    between atoms: _21  and  _23
REMARK   10  A    between atoms: _23  and  _24
REMARK   11  A    between atoms: _23  and  _26
REMARK   12  A    between atoms: _28  and  _30
REMARK   13  A    between atoms: _30  and  _31
REMARK   14  A    between atoms: _30  and  _33
REMARK   15  A    between atoms: _33  and  _34
REMARK   16  A    between atoms: _39  and  _41
REMARK   17  A    between atoms: _41  and  _42
REMARK   18  A    between atoms: _41  and  _44
REMARK   19  A    between atoms: _44  and  _45
REMARK   20  A    between atoms: _50  and  _52
REMARK   21  A    between atoms: _52  and  _53
REMARK   22  A    between atoms: _52  and  _55
REMARK   23  A    between atoms: _55  and  _56
REMARK   24  A    between atoms: _59  and  _61
REMARK   25  A    between atoms: _61  and  _62
REMARK   26  A    between atoms: _61  and  _64
REMARK   27  A    between atoms: _64  and  _65
REMARK   28  A    between atoms: _68  and  _70
REMARK   29  A    between atoms: _70  and  _71
REMARK   30  A    between atoms: _70  and  _73
REMARK   31  A    between atoms: _73  and  _74
REMARK   32  A    between atoms: _74  and  _75
REMARK   33  A    between atoms: _75  and  _76
REMARK   34  A    between atoms: _76  and  _77
REMARK   35  A    between atoms: _81  and  _83
REMARK   36  A    between atoms: _83  and  _84
REMARK   37  A    between atoms: _83  and  _86
REMARK   38  A    between atoms: _86  and  _87
REMARK   39  A    between atoms: _89  and  _91
REMARK   40  A    between atoms: _91  and  _92
REMARK   41  A    between atoms: _91  and  _94
REMARK   42  A    between atoms: _94  and  _95
REMARK   43  A    between atoms: _100  and  _101
REMARK   44  A    between atoms: _103  and  _105
REMARK   45  A    between atoms: _105  and  _106
REMARK   46  A    between atoms: _105  and  _108
REMARK   47  A    between atoms: _108  and  _109
REMARK   48  A    between atoms: _114  and  _115
REMARK   49  A    between atoms: _117  and  _119
REMARK   50  A    between atoms: _119  and  _120
REMARK   51  A    between atoms: _123  and  _125
REMARK   52  A    between atoms: _125  and  _126
REMARK   53  A    between atoms: _129  and  _131
REMARK   54  A    between atoms: _131  and  _132
REMARK   55  A    between atoms: _131  and  _134
REMARK   56  A    between atoms: _134  and  _135
REMARK   57  A    between atoms: _138  and  _140
REMARK   58  A    between atoms: _140  and  _141
REMARK   59  A    between atoms: _140  and  _143
REMARK   60  A    between atoms: _143  and  _144
REMARK   61  A    between atoms: _147  and  _149
REMARK   62  A    between atoms: _149  and  _150
REMARK   63  A    between atoms: _149  and  _152
REMARK   64  A    between atoms: _152  and  _153
REMARK   65  A    between atoms: _155  and  _157
REMARK   66  A    between atoms: _157  and  _158
REMARK   67  A    between atoms: _157  and  _160
REMARK   68  A    between atoms: _160  and  _161
REMARK   69  A    between atoms: _161  and  _280
REMARK   70  A    between atoms: _162  and  _164
REMARK   71  A    between atoms: _164  and  _165
REMARK   72  A    between atoms: _164  and  _167
REMARK   73  A    between atoms: _167  and  _168
REMARK   74  A    between atoms: _168  and  _169
REMARK   75  A    between atoms: _174  and  _176
REMARK   76  A    between atoms: _176  and  _177
REMARK   77  A    between atoms: _179  and  _181
REMARK   78  A    between atoms: _181  and  _182
REMARK   79  A    between atoms: _181  and  _184
REMARK   80  A    between atoms: _184  and  _185
REMARK   81  A    between atoms: _188  and  _190
REMARK   82  A    between atoms: _190  and  _191
REMARK   83  A    between atoms: _190  and  _193
REMARK   84  A    between atoms: _193  and  _194
REMARK   85  A    between atoms: _196  and  _198
REMARK   86  A    between atoms: _198  and  _199
REMARK   87  A    between atoms: _201  and  _203
REMARK   88  A    between atoms: _203  and  _204
REMARK   89  A    between atoms: _206  and  _208
REMARK   90  A    between atoms: _208  and  _209
REMARK   91  A    between atoms: _208  and  _211
REMARK   92  A    between atoms: _211  and  _212
REMARK   93  A    between atoms: _215  and  _217
REMARK   94  A    between atoms: _217  and  _218
REMARK   95  A    between atoms: _217  and  _220
REMARK   96  A    between atoms: _223  and  _225
REMARK   97  A    between atoms: _225  and  _226
REMARK   98  A    between atoms: _225  and  _228
REMARK   99  A    between atoms: _228  and  _229
REMARK  100  A    between atoms: _231  and  _233
REMARK  101  A    between atoms: _233  and  _234
REMARK  102  A    between atoms: _233  and  _236
REMARK  103  A    between atoms: _236  and  _237
REMARK  104  A    between atoms: _247  and  _249
REMARK  105  A    between atoms: _249  and  _250
REMARK  106  A    between atoms: _252  and  _254
REMARK  107  A    between atoms: _254  and  _255
REMARK  108  A    between atoms: _254  and  _257
REMARK  109  A    between atoms: _257  and  _258
REMARK  110  A    between atoms: _258  and  _259
REMARK  111  A    between atoms: _259  and  _260
REMARK  112  A    between atoms: _269  and  _271
REMARK  113  A    between atoms: _271  and  _272
REMARK  114  A    between atoms: _274  and  _276
REMARK  115  A    between atoms: _276  and  _277
REMARK  116  A    between atoms: _276  and  _279
REMARK  117  A    between atoms: _279  and  _280
REMARK  118  A    between atoms: _281  and  _283
REMARK  119  A    between atoms: _283  and  _284
REMARK  120  A    between atoms: _287  and  _289
REMARK  121  A    between atoms: _289  and  _290
REMARK  122  A    between atoms: _289  and  _292
REMARK  123  A    between atoms: _292  and  _293
REMARK  124  A    between atoms: _296  and  _298
REMARK  125  A    between atoms: _298  and  _299
REMARK  126  A    between atoms: _298  and  _301
REMARK  127  A    between atoms: _301  and  _302
REMARK  128  A    between atoms: _302  and  _303
REMARK  129  A    between atoms: _303  and  _304
REMARK  130  A    between atoms: _304  and  _305
REMARK  131  A    between atoms: _310  and  _311
REMARK  132  A    between atoms: _316  and  _318
REMARK  133  A    between atoms: _318  and  _319
REMARK  134  A    between atoms: _321  and  _323
REMARK  135  A    between atoms: _323  and  _324
REMARK  136  A    between atoms: _323  and  _326
REMARK  137  A    between atoms: _329  and  _331
REMARK  138  A    between atoms: _331  and  _332
REMARK  139  A    between atoms: _331  and  _334
REMARK  140  A    between atoms: _334  and  _335
REMARK  141  A    between atoms: _340  and  _341
REMARK                            x       y       z     vdW  Elec       q    Type
REMARK                         _______ _______ _______ _____ _____    ______ ____
ROOT
ATOM      1  CA  ILE A   1     -31.114 -25.336   1.405  0.00  0.00    +0.133 C 
ENDROOT
BRANCH   1   2
ATOM      2  N   ILE A   1     -32.018 -26.436   1.064  0.00  0.00    -0.239 NA
ATOM      3  H   ILE A   1     -31.957 -27.316   1.615  0.00  0.00    +0.142 HD
ENDBRANCH   1   2
BRANCH   1   4
ATOM      4  CB  ILE A   1     -31.429 -24.693   2.774  0.00  0.00    +0.023 C 
ATOM      5  CG2 ILE A   1     -32.710 -23.877   2.696  0.00  0.00    +0.002 C 
BRANCH   4   6
ATOM      6  CG1 ILE A   1     -31.486 -25.723   3.901  0.00  0.00    +0.002 C 
ATOM      7  CD1 ILE A   1     -31.588 -25.098   5.303  0.00  0.00    +0.000 C 
ENDBRANCH   4   6
ENDBRANCH   1   4
BRANCH   1   8
ATOM      8  C   ILE A   1     -29.683 -25.854   1.373  0.00  0.00    +0.224 C 
ATOM      9  O   ILE A   1     -29.445 -27.041   1.669  0.00  0.00    -0.287 OA
ENDBRANCH   1   8
TORSDOF 4
REMARK  Name = ../refined-set-2016/3mhw/3mhw_pocket.pdb
REMARK  141 active torsions:
REMARK  status: ('A' for Active; 'I' for Inactive)
REMARK    1  A    between atoms: _1  and  _5
REMARK    2  A    between atoms: _5  and  _6
REMARK    3  A    between atoms: _5  and  _8
REMARK    4  A    between atoms: _8  and  _9
REMARK    5  A    between atoms: _12  and  _14
REMARK    6  A    between atoms: _14  and  _15
REMARK    7  A    between atoms: _14  and  _17
REMARK    8  A    between atoms: _17  and  _18
REMARK    9  A    between atoms: _21  and  _23
REMARK   10  A    between atoms: _23  and  _24
REMARK   11  A    between atoms: _23  and  _26
REMARK   12  A    between atoms: _28  and  _30
REMARK   13  A    between atoms: _30  and  _31
REMARK   14  A    between atoms: _30  and  _33
REMARK   15  A    between atoms: _33  and  _34
REMARK   16  A    between atoms: _39  and  _41
REMARK   17  A    between atoms: _41  and  _42
REMARK   18  A    between atoms: _41  and  _44
REMARK   19  A    between atoms: _44  and  _45
REMARK   20  A    between atoms: _50  and  _52
REMARK   21  A    between atoms: _52  and  _53
REMARK   22  A    between atoms: _52  and  _55
REMARK   23  A    between atoms: _55  and  _56
REMARK   24  A    between atoms: _59  and  _61
REMARK   25  A    between atoms: _61  and  _62
REMARK   26  A    between atoms: _61  and  _64
REMARK   27  A    between atoms: _64  and  _65
REMARK   28  A    between atoms: _68  and  _70
REMARK   29  A    between atoms: _70  and  _71
REMARK   30  A    between atoms: _70  and  _73
REMARK   31  A    between atoms: _73  and  _74
REMARK   32  A    between atoms: _74  and  _75
REMARK   33  A    between atoms: _75  and  _76
REMARK   34  A    between atoms: _76  and  _77
REMARK   35  A    between atoms: _81  and  _83
REMARK   36  A    between atoms: _83  and  _84
REMARK   37  A    between atoms: _83  and  _86
REMARK   38  A    between atoms: _86  and  _87
REMARK   39  A    between atoms: _89  and  _91
REMARK   40  A    between atoms: _91  and  _92
REMARK   41  A    between atoms: _91  and  _94
REMARK   42  A    between atoms: _94  and  _95
REMARK   43  A    between atoms: _100  and  _101
REMARK   44  A    between atoms: _103  and  _105
REMARK   45  A    between atoms: _105  and  _106
REMARK   46  A    between atoms: _105  and  _108
REMARK   47  A    between atoms: _108  and  _109
REMARK   48  A    between atoms: _114  and  _115
REMARK   49  A    between atoms: _117  and  _119
REMARK   50  A    between atoms: _119  and  _120
REMARK   51  A    between atoms: _123  and  _125
REMARK   52  A    between atoms: _125  and  _126
REMARK   53  A    between atoms: _129  and  _131
REMARK   54  A    between atoms: _131  and  _132
REMARK   55  A    between atoms: _131  and  _134
REMARK   56  A    between atoms: _134  and  _135
REMARK   57  A    between atoms: _138  and  _140
REMARK   58  A    between atoms: _140  and  _141
REMARK   59  A    between atoms: _140  and  _143
REMARK   60  A    between atoms: _143  and  _144
REMARK   61  A    between atoms: _147  and  _149
REMARK   62  A    between atoms: _149  and  _150
REMARK   63  A    between atoms: _149  and  _152
REMARK   64  A    between atoms: _152  and  _153
REMARK   65  A    between atoms: _155  and  _157
REMARK   66  A    between atoms: _157  and  _158
REMARK   67  A    between atoms: _157  and  _160
REMARK   68  A    between atoms: _160  and  _161
REMARK   69  A    between atoms: _161  and  _280
REMARK   70  A    between atoms: _162  and  _164
REMARK   71  A    between atoms: _164  and  _165
REMARK   72  A    between atoms: _164  and  _167
REMARK   73  A    between atoms: _167  and  _168
REMARK   74  A    between atoms: _168  and  _169
REMARK   75  A    between atoms: _174  and  _176
REMARK   76  A    between atoms: _176  and  _177
REMARK   77  A    between atoms: _179  and  _181
REMARK   78  A    between atoms: _181  and  _182
REMARK   79  A    between atoms: _181  and  _184
REMARK   80  A    between atoms: _184  and  _185
REMARK   81  A    between atoms: _188  and  _190
REMARK   82  A    between atoms: _190  and  _191
REMARK   83  A    between atoms: _190  and  _193
REMARK   84  A    between atoms: _193  and  _194
REMARK   85  A    between atoms: _196  and  _198
REMARK   86  A    between atoms: _198  and  _199
REMARK   87  A    between atoms: _201  and  _203
REMARK   88  A    between atoms: _203  and  _204
REMARK   89  A    between atoms: _206  and  _208
REMARK   90  A    between atoms: _208  and  _209
REMARK   91  A    between atoms: _208  and  _211
REMARK   92  A    between atoms: _211  and  _212
REMARK   93  A    between atoms: _215  and  _217
REMARK   94  A    between atoms: _217  and  _218
REMARK   95  A    between atoms: _217  and  _220
REMARK   96  A    between atoms: _223  and  _225
REMARK   97  A    between atoms: _225  and  _226
REMARK   98  A    between atoms: _225  and  _228
REMARK   99  A    between atoms: _228  and  _229
REMARK  100  A    between atoms: _231  and  _233
REMARK  101  A    between atoms: _233  and  _234
REMARK  102  A    between atoms: _233  and  _236
REMARK  103  A    between atoms: _236  and  _237
REMARK  104  A    between atoms: _247  and  _249
REMARK  105  A    between atoms: _249  and  _250
REMARK  106  A    between atoms: _252  and  _254
REMARK  107  A    between atoms: _254  and  _255
REMARK  108  A    between atoms: _254  and  _257
REMARK  109  A    between atoms: _257  and  _258
REMARK  110  A    between atoms: _258  and  _259
REMARK  111  A    between atoms: _259  and  _260
REMARK  112  A    between atoms: _269  and  _271
REMARK  113  A    between atoms: _271  and  _272
REMARK  114  A    between atoms: _274  and  _276
REMARK  115  A    between atoms: _276  and  _277
REMARK  116  A    between atoms: _276  and  _279
REMARK  117  A    between atoms: _279  and  _280
REMARK  118  A    between atoms: _281  and  _283
REMARK  119  A    between atoms: _283  and  _284
REMARK  120  A    between atoms: _287  and  _289
REMARK  121  A    between atoms: _289  and  _290
REMARK  122  A    between atoms: _289  and  _292
REMARK  123  A    between atoms: _292  and  _293
REMARK  124  A    between atoms: _296  and  _298
REMARK  125  A    between atoms: _298  and  _299
REMARK  126  A    between atoms: _298  and  _301
REMARK  127  A    between atoms: _301  and  _302
REMARK  128  A    between atoms: _302  and  _303
REMARK  129  A    between atoms: _303  and  _304
REMARK  130  A    between atoms: _304  and  _305
REMARK  131  A    between atoms: _310  and  _311
REMARK  132  A    between atoms: _316  and  _318
REMARK  133  A    between atoms: _318  and  _319
REMARK  134  A    between atoms: _321  and  _323
REMARK  135  A    between atoms: _323  and  _324
REMARK  136  A    between atoms: _323  and  _326
REMARK  137  A    between atoms: _329  and  _331
REMARK  138  A    between atoms: _331  and  _332
REMARK  139  A    between atoms: _331  and  _334
REMARK  140  A    between atoms: _334  and  _335
REMARK  141  A    between atoms: _340  and  _341
REMARK                            x       y       z     vdW  Elec       q    Type
REMARK                         _______ _______ _______ _____ _____    ______ ____
ROOT
ATOM      1  CG  LYS A   1     -21.396 -22.537  12.825  0.00  0.00    -0.000 C 
ENDROOT
BRANCH   1   2
ATOM      2  CB  LYS A   1     -22.447 -23.577  12.482  0.00  0.00    +0.025 C 
BRANCH   2   3
ATOM      3  CA  LYS A   1     -22.235 -24.307  11.159  0.00  0.00    +0.133 C 
BRANCH   3   4
ATOM      4  N   LYS A   1     -22.502 -23.406  10.031  0.00  0.00    -0.239 NA
ATOM      5  H   LYS A   1     -22.752 -22.414  10.221  0.00  0.00    +0.142 HD
ENDBRANCH   3   4
BRANCH   3   6
ATOM      6  C   LYS A   1     -23.090 -25.550  11.137  0.00  0.00    +0.224 C 
ATOM      7  O   LYS A   1     -24.259 -25.519  10.738  0.00  0.00    -0.287 OA
ENDBRANCH   3   6
ENDBRANCH   2   3
ENDBRANCH   1   2
BRANCH   1   8
ATOM      8  CD  LYS A   1     -21.680 -21.978  14.216  0.00  0.00    -0.024 C 
BRANCH   8   9
ATOM      9  CE  LYS A   1     -20.692 -20.899  14.589  0.00  0.00    -0.086 C 
BRANCH   9  10
ATOM     10  NZ  LYS A   1     -20.968 -20.441  15.984  0.00  0.00    +0.380 N 
ATOM     11  HZ1 LYS A   1     -20.871 -21.245  16.637  0.00  0.00    -0.089 HD
ATOM     12  HZ2 LYS A   1     -20.289 -19.697  16.244  0.00  0.00    -0.089 HD
ATOM     13  HZ3 LYS A   1     -21.935 -20.063  16.039  0.00  0.00    -0.089 HD
ENDBRANCH   9  10
ENDBRANCH   8   9
ENDBRANCH   1   8
TORSDOF 7
REMARK  Name = ../refined-set-2016/3mhw/3mhw_pocket.pdb
REMARK  141 active torsions:
REMARK  status: ('A' for Active; 'I' for Inactive)
REMARK    1  A    between atoms: _1  and  _5
REMARK    2  A    between atoms: _5  and  _6
REMARK    3  A    between atoms: _5  and  _8
REMARK    4  A    between atoms: _8  and  _9
REMARK    5  A    between atoms: _12  and  _14
REMARK    6  A    between atoms: _14  and  _15
REMARK    7  A    between atoms: _14  and  _17
REMARK    8  A    between atoms: _17  and  _18
REMARK    9  A    between atoms: _21  and  _23
REMARK   10  A    between atoms: _23  and  _24
REMARK   11  A    between atoms: _23  and  _26
REMARK   12  A    between atoms: _28  and  _30
REMARK   13  A    between atoms: _30  and  _31
REMARK   14  A    between atoms: _30  and  _33
REMARK   15  A    between atoms: _33  and  _34
REMARK   16  A    between atoms: _39  and  _41
REMARK   17  A    between atoms: _41  and  _42
REMARK   18  A    between atoms: _41  and  _44
REMARK   19  A    between atoms: _44  and  _45
REMARK   20  A    between atoms: _50  and  _52
REMARK   21  A    between atoms: _52  and  _53
REMARK   22  A    between atoms: _52  and  _55
REMARK   23  A    between atoms: _55  and  _56
REMARK   24  A    between atoms: _59  and  _61
REMARK   25  A    between atoms: _61  and  _62
REMARK   26  A    between atoms: _61  and  _64
REMARK   27  A    between atoms: _64  and  _65
REMARK   28  A    between atoms: _68  and  _70
REMARK   29  A    between atoms: _70  and  _71
REMARK   30  A    between atoms: _70  and  _73
REMARK   31  A    between atoms: _73  and  _74
REMARK   32  A    between atoms: _74  and  _75
REMARK   33  A    between atoms: _75  and  _76
REMARK   34  A    between atoms: _76  and  _77
REMARK   35  A    between atoms: _81  and  _83
REMARK   36  A    between atoms: _83  and  _84
REMARK   37  A    between atoms: _83  and  _86
REMARK   38  A    between atoms: _86  and  _87
REMARK   39  A    between atoms: _89  and  _91
REMARK   40  A    between atoms: _91  and  _92
REMARK   41  A    between atoms: _91  and  _94
REMARK   42  A    between atoms: _94  and  _95
REMARK   43  A    between atoms: _100  and  _101
REMARK   44  A    between atoms: _103  and  _105
REMARK   45  A    between atoms: _105  and  _106
REMARK   46  A    between atoms: _105  and  _108
REMARK   47  A    between atoms: _108  and  _109
REMARK   48  A    between atoms: _114  and  _115
REMARK   49  A    between atoms: _117  and  _119
REMARK   50  A    between atoms: _119  and  _120
REMARK   51  A    between atoms: _123  and  _125
REMARK   52  A    between atoms: _125  and  _126
REMARK   53  A    between atoms: _129  and  _131
REMARK   54  A    between atoms: _131  and  _132
REMARK   55  A    between atoms: _131  and  _134
REMARK   56  A    between atoms: _134  and  _135
REMARK   57  A    between atoms: _138  and  _140
REMARK   58  A    between atoms: _140  and  _141
REMARK   59  A    between atoms: _140  and  _143
REMARK   60  A    between atoms: _143  and  _144
REMARK   61  A    between atoms: _147  and  _149
REMARK   62  A    between atoms: _149  and  _150
REMARK   63  A    between atoms: _149  and  _152
REMARK   64  A    between atoms: _152  and  _153
REMARK   65  A    between atoms: _155  and  _157
REMARK   66  A    between atoms: _157  and  _158
REMARK   67  A    between atoms: _157  and  _160
REMARK   68  A    between atoms: _160  and  _161
REMARK   69  A    between atoms: _161  and  _280
REMARK   70  A    between atoms: _162  and  _164
REMARK   71  A    between atoms: _164  and  _165
REMARK   72  A    between atoms: _164  and  _167
REMARK   73  A    between atoms: _167  and  _168
REMARK   74  A    between atoms: _168  and  _169
REMARK   75  A    between atoms: _174  and  _176
REMARK   76  A    between atoms: _176  and  _177
REMARK   77  A    between atoms: _179  and  _181
REMARK   78  A    between atoms: _181  and  _182
REMARK   79  A    between atoms: _181  and  _184
REMARK   80  A    between atoms: _184  and  _185
REMARK   81  A    between atoms: _188  and  _190
REMARK   82  A    between atoms: _190  and  _191
REMARK   83  A    between atoms: _190  and  _193
REMARK   84  A    between atoms: _193  and  _194
REMARK   85  A    between atoms: _196  and  _198
REMARK   86  A    between atoms: _198  and  _199
REMARK   87  A    between atoms: _201  and  _203
REMARK   88  A    between atoms: _203  and  _204
REMARK   89  A    between atoms: _206  and  _208
REMARK   90  A    between atoms: _208  and  _209
REMARK   91  A    between atoms: _208  and  _211
REMARK   92  A    between atoms: _211  and  _212
REMARK   93  A    between atoms: _215  and  _217
REMARK   94  A    between atoms: _217  and  _218
REMARK   95  A    between atoms: _217  and  _220
REMARK   96  A    between atoms: _223  and  _225
REMARK   97  A    between atoms: _225  and  _226
REMARK   98  A    between atoms: _225  and  _228
REMARK   99  A    between atoms: _228  and  _229
REMARK  100  A    between atoms: _231  and  _233
REMARK  101  A    between atoms: _233  and  _234
REMARK  102  A    between atoms: _233  and  _236
REMARK  103  A    between atoms: _236  and  _237
REMARK  104  A    between atoms: _247  and  _249
REMARK  105  A    between atoms: _249  and  _250
REMARK  106  A    between atoms: _252  and  _254
REMARK  107  A    between atoms: _254  and  _255
REMARK  108  A    between atoms: _254  and  _257
REMARK  109  A    between atoms: _257  and  _258
REMARK  110  A    between atoms: _258  and  _259
REMARK  111  A    between atoms: _259  and  _260
REMARK  112  A    between atoms: _269  and  _271
REMARK  113  A    between atoms: _271  and  _272
REMARK  114  A    between atoms: _274  and  _276
REMARK  115  A    between atoms: _276  and  _277
REMARK  116  A    between atoms: _276  and  _279
REMARK  117  A    between atoms: _279  and  _280
REMARK  118  A    between atoms: _281  and  _283
REMARK  119  A    between atoms: _283  and  _284
REMARK  120  A    between atoms: _287  and  _289
REMARK  121  A    between atoms: _289  and  _290
REMARK  122  A    between atoms: _289  and  _292
REMARK  123  A    between atoms: _292  and  _293
REMARK  124  A    between atoms: _296  and  _298
REMARK  125  A    between atoms: _298  and  _299
REMARK  126  A    between atoms: _298  and  _301
REMARK  127  A    between atoms: _301  and  _302
REMARK  128  A    between atoms: _302  and  _303
REMARK  129  A    between atoms: _303  and  _304
REMARK  130  A    between atoms: _304  and  _305
REMARK  131  A    between atoms: _310  and  _311
REMARK  132  A    between atoms: _316  and  _318
REMARK  133  A    between atoms: _318  and  _319
REMARK  134  A    between atoms: _321  and  _323
REMARK  135  A    between atoms: _323  and  _324
REMARK  136  A    between atoms: _323  and  _326
REMARK  137  A    between atoms: _329  and  _331
REMARK  138  A    between atoms: _331  and  _332
REMARK  139  A    between atoms: _331  and  _334
REMARK  140  A    between atoms: _334  and  _335
REMARK  141  A    between atoms: _340  and  _341
REMARK                            x       y       z     vdW  Elec       q    Type
REMARK                         _______ _______ _______ _____ _____    ______ ____
ROOT
ATOM      1  CA  SER A   1     -25.007 -23.975  17.026  0.00  0.00    +0.163 C 
ENDROOT
BRANCH   1   2
ATOM      2  N   SER A   1     -25.018 -25.342  16.552  0.00  0.00    -0.237 NA
ATOM      3  H   SER A   1     -25.827 -25.958  16.770  0.00  0.00    +0.142 HD
ENDBRANCH   1   2
BRANCH   1   4
ATOM      4  C   SER A   1     -23.788 -23.687  17.885  0.00  0.00    +0.227 C 
ATOM      5  O   SER A   1     -23.278 -22.563  17.851  0.00  0.00    -0.287 OA
ENDBRANCH   1   4
BRANCH   1   6
ATOM      6  CB  SER A   1     -26.275 -23.674  17.812  0.00  0.00    +0.162 C 
BRANCH   6   7
ATOM      7  OG  SER A   1     -27.400 -23.705  16.954  0.00  0.00    -0.380 OA
ATOM      8  H   SER A   1     -28.218 -23.508  17.476  0.00  0.00    +0.211 HD
ENDBRANCH   6   7
ENDBRANCH   1   6
TORSDOF 4
REMARK  Name = ../refined-set-2016/3mhw/3mhw_pocket.pdb
REMARK  141 active torsions:
REMARK  status: ('A' for Active; 'I' for Inactive)
REMARK    1  A    between atoms: _1  and  _5
REMARK    2  A    between atoms: _5  and  _6
REMARK    3  A    between atoms: _5  and  _8
REMARK    4  A    between atoms: _8  and  _9
REMARK    5  A    between atoms: _12  and  _14
REMARK    6  A    between atoms: _14  and  _15
REMARK    7  A    between atoms: _14  and  _17
REMARK    8  A    between atoms: _17  and  _18
REMARK    9  A    between atoms: _21  and  _23
REMARK   10  A    between atoms: _23  and  _24
REMARK   11  A    between atoms: _23  and  _26
REMARK   12  A    between atoms: _28  and  _30
REMARK   13  A    between atoms: _30  and  _31
REMARK   14  A    between atoms: _30  and  _33
REMARK   15  A    between atoms: _33  and  _34
REMARK   16  A    between atoms: _39  and  _41
REMARK   17  A    between atoms: _41  and  _42
REMARK   18  A    between atoms: _41  and  _44
REMARK   19  A    between atoms: _44  and  _45
REMARK   20  A    between atoms: _50  and  _52
REMARK   21  A    between atoms: _52  and  _53
REMARK   22  A    between atoms: _52  and  _55
REMARK   23  A    between atoms: _55  and  _56
REMARK   24  A    between atoms: _59  and  _61
REMARK   25  A    between atoms: _61  and  _62
REMARK   26  A    between atoms: _61  and  _64
REMARK   27  A    between atoms: _64  and  _65
REMARK   28  A    between atoms: _68  and  _70
REMARK   29  A    between atoms: _70  and  _71
REMARK   30  A    between atoms: _70  and  _73
REMARK   31  A    between atoms: _73  and  _74
REMARK   32  A    between atoms: _74  and  _75
REMARK   33  A    between atoms: _75  and  _76
REMARK   34  A    between atoms: _76  and  _77
REMARK   35  A    between atoms: _81  and  _83
REMARK   36  A    between atoms: _83  and  _84
REMARK   37  A    between atoms: _83  and  _86
REMARK   38  A    between atoms: _86  and  _87
REMARK   39  A    between atoms: _89  and  _91
REMARK   40  A    between atoms: _91  and  _92
REMARK   41  A    between atoms: _91  and  _94
REMARK   42  A    between atoms: _94  and  _95
REMARK   43  A    between atoms: _100  and  _101
REMARK   44  A    between atoms: _103  and  _105
REMARK   45  A    between atoms: _105  and  _106
REMARK   46  A    between atoms: _105  and  _108
REMARK   47  A    between atoms: _108  and  _109
REMARK   48  A    between atoms: _114  and  _115
REMARK   49  A    between atoms: _117  and  _119
REMARK   50  A    between atoms: _119  and  _120
REMARK   51  A    between atoms: _123  and  _125
REMARK   52  A    between atoms: _125  and  _126
REMARK   53  A    between atoms: _129  and  _131
REMARK   54  A    between atoms: _131  and  _132
REMARK   55  A    between atoms: _131  and  _134
REMARK   56  A    between atoms: _134  and  _135
REMARK   57  A    between atoms: _138  and  _140
REMARK   58  A    between atoms: _140  and  _141
REMARK   59  A    between atoms: _140  and  _143
REMARK   60  A    between atoms: _143  and  _144
REMARK   61  A    between atoms: _147  and  _149
REMARK   62  A    between atoms: _149  and  _150
REMARK   63  A    between atoms: _149  and  _152
REMARK   64  A    between atoms: _152  and  _153
REMARK   65  A    between atoms: _155  and  _157
REMARK   66  A    between atoms: _157  and  _158
REMARK   67  A    between atoms: _157  and  _160
REMARK   68  A    between atoms: _160  and  _161
REMARK   69  A    between atoms: _161  and  _280
REMARK   70  A    between atoms: _162  and  _164
REMARK   71  A    between atoms: _164  and  _165
REMARK   72  A    between atoms: _164  and  _167
REMARK   73  A    between atoms: _167  and  _168
REMARK   74  A    between atoms: _168  and  _169
REMARK   75  A    between atoms: _174  and  _176
REMARK   76  A    between atoms: _176  and  _177
REMARK   77  A    between atoms: _179  and  _181
REMARK   78  A    between atoms: _181  and  _182
REMARK   79  A    between atoms: _181  and  _184
REMARK   80  A    between atoms: _184  and  _185
REMARK   81  A    between atoms: _188  and  _190
REMARK   82  A    between atoms: _190  and  _191
REMARK   83  A    between atoms: _190  and  _193
REMARK   84  A    between atoms: _193  and  _194
REMARK   85  A    between atoms: _196  and  _198
REMARK   86  A    between atoms: _198  and  _199
REMARK   87  A    between atoms: _201  and  _203
REMARK   88  A    between atoms: _203  and  _204
REMARK   89  A    between atoms: _206  and  _208
REMARK   90  A    between atoms: _208  and  _209
REMARK   91  A    between atoms: _208  and  _211
REMARK   92  A    between atoms: _211  and  _212
REMARK   93  A    between atoms: _215  and  _217
REMARK   94  A    between atoms: _217  and  _218
REMARK   95  A    between atoms: _217  and  _220
REMARK   96  A    between atoms: _223  and  _225
REMARK   97  A    between atoms: _225  and  _226
REMARK   98  A    between atoms: _225  and  _228
REMARK   99  A    between atoms: _228  and  _229
REMARK  100  A    between atoms: _231  and  _233
REMARK  101  A    between atoms: _233  and  _234
REMARK  102  A    between atoms: _233  and  _236
REMARK  103  A    between atoms: _236  and  _237
REMARK  104  A    between atoms: _247  and  _249
REMARK  105  A    between atoms: _249  and  _250
REMARK  106  A    between atoms: _252  and  _254
REMARK  107  A    between atoms: _254  and  _255
REMARK  108  A    between atoms: _254  and  _257
REMARK  109  A    between atoms: _257  and  _258
REMARK  110  A    between atoms: _258  and  _259
REMARK  111  A    between atoms: _259  and  _260
REMARK  112  A    between atoms: _269  and  _271
REMARK  113  A    between atoms: _271  and  _272
REMARK  114  A    between atoms: _274  and  _276
REMARK  115  A    between atoms: _276  and  _277
REMARK  116  A    between atoms: _276  and  _279
REMARK  117  A    between atoms: _279  and  _280
REMARK  118  A    between atoms: _281  and  _283
REMARK  119  A    between atoms: _283  and  _284
REMARK  120  A    between atoms: _287  and  _289
REMARK  121  A    between atoms: _289  and  _290
REMARK  122  A    between atoms: _289  and  _292
REMARK  123  A    between atoms: _292  and  _293
REMARK  124  A    between atoms: _296  and  _298
REMARK  125  A    between atoms: _298  and  _299
REMARK  126  A    between atoms: _298  and  _301
REMARK  127  A    between atoms: _301  and  _302
REMARK  128  A    between atoms: _302  and  _303
REMARK  129  A    between atoms: _303  and  _304
REMARK  130  A    between atoms: _304  and  _305
REMARK  131  A    between atoms: _310  and  _311
REMARK  132  A    between atoms: _316  and  _318
REMARK  133  A    between atoms: _318  and  _319
REMARK  134  A    between atoms: _321  and  _323
REMARK  135  A    between atoms: _323  and  _324
REMARK  136  A    between atoms: _323  and  _326
REMARK  137  A    between atoms: _329  and  _331
REMARK  138  A    between atoms: _331  and  _332
REMARK  139  A    between atoms: _331  and  _334
REMARK  140  A    between atoms: _334  and  _335
REMARK  141  A    between atoms: _340  and  _341
REMARK                            x       y       z     vdW  Elec       q    Type
REMARK                         _______ _______ _______ _____ _____    ______ ____
ROOT
ATOM      1  CG  TYR A   1     -18.190 -21.822   9.054  0.00  0.00    -0.020 A 
ATOM      2  CD2 TYR A   1     -18.837 -21.635  10.272  0.00  0.00    -0.001 A 
ATOM      3  CE2 TYR A   1     -19.410 -20.405  10.596  0.00  0.00    +0.036 A 
ATOM      4  CZ  TYR A   1     -19.377 -19.381   9.673  0.00  0.00    +0.134 A 
ATOM      5  CE1 TYR A   1     -18.774 -19.555   8.455  0.00  0.00    +0.036 A 
ATOM      6  CD1 TYR A   1     -18.186 -20.773   8.150  0.00  0.00    -0.001 A 
ENDROOT
BRANCH   4   7
ATOM      7  OH  TYR A   1     -19.941 -18.149   9.947  0.00  0.00    -0.506 OA
ATOM      8  HH  TYR A   1     -20.646 -17.954   9.280  0.00  0.00    +0.292 HD
ENDBRANCH   4   7
BRANCH   1   9
ATOM      9  CB  TYR A   1     -17.550 -23.154   8.670  0.00  0.00    +0.051 C 
BRANCH   9  10
ATOM     10  CA  TYR A   1     -17.515 -24.245   9.752  0.00  0.00    +0.137 C 
BRANCH  10  11
ATOM     11  N   TYR A   1     -16.567 -23.902  10.802  0.00  0.00    -0.239 NA
ATOM     12  H   TYR A   1     -15.707 -23.371  10.558  0.00  0.00    +0.142 HD
ENDBRANCH  10  11
BRANCH  10  13
ATOM     13  C   TYR A   1     -17.060 -25.563   9.121  0.00  0.00    +0.224 C 
ATOM     14  O   TYR A   1     -15.865 -25.889   9.154  0.00  0.00    -0.287 OA
ENDBRANCH  10  13
ENDBRANCH   9  10
ENDBRANCH   1   9
TORSDOF 5
REMARK  Name = ../refined-set-2016/3mhw/3mhw_pocket.pdb
REMARK  141 active torsions:
REMARK  status: ('A' for Active; 'I' for Inactive)
REMARK    1  A    between atoms: _1  and  _5
REMARK    2  A    between atoms: _5  and  _6
REMARK    3  A    between atoms: _5  and  _8
REMARK    4  A    between atoms: _8  and  _9
REMARK    5  A    between atoms: _12  and  _14
REMARK    6  A    between atoms: _14  and  _15
REMARK    7  A    between atoms: _14  and  _17
REMARK    8  A    between atoms: _17  and  _18
REMARK    9  A    between atoms: _21  and  _23
REMARK   10  A    between atoms: _23  and  _24
REMARK   11  A    between atoms: _23  and  _26
REMARK   12  A    between atoms: _28  and  _30
REMARK   13  A    between atoms: _30  and  _31
REMARK   14  A    between atoms: _30  and  _33
REMARK   15  A    between atoms: _33  and  _34
REMARK   16  A    between atoms: _39  and  _41
REMARK   17  A    between atoms: _41  and  _42
REMARK   18  A    between atoms: _41  and  _44
REMARK   19  A    between atoms: _44  and  _45
REMARK   20  A    between atoms: _50  and  _52
REMARK   21  A    between atoms: _52  and  _53
REMARK   22  A    between atoms: _52  and  _55
REMARK   23  A    between atoms: _55  and  _56
REMARK   24  A    between atoms: _59  and  _61
REMARK   25  A    between atoms: _61  and  _62
REMARK   26  A    between atoms: _61  and  _64
REMARK   27  A    between atoms: _64  and  _65
REMARK   28  A    between atoms: _68  and  _70
REMARK   29  A    between atoms: _70  and  _71
REMARK   30  A    between atoms: _70  and  _73
REMARK   31  A    between atoms: _73  and  _74
REMARK   32  A    between atoms: _74  and  _75
REMARK   33  A    between atoms: _75  and  _76
REMARK   34  A    between atoms: _76  and  _77
REMARK   35  A    between atoms: _81  and  _83
REMARK   36  A    between atoms: _83  and  _84
REMARK   37  A    between atoms: _83  and  _86
REMARK   38  A    between atoms: _86  and  _87
REMARK   39  A    between atoms: _89  and  _91
REMARK   40  A    between atoms: _91  and  _92
REMARK   41  A    between atoms: _91  and  _94
REMARK   42  A    between atoms: _94  and  _95
REMARK   43  A    between atoms: _100  and  _101
REMARK   44  A    between atoms: _103  and  _105
REMARK   45  A    between atoms: _105  and  _106
REMARK   46  A    between atoms: _105  and  _108
REMARK   47  A    between atoms: _108  and  _109
REMARK   48  A    between atoms: _114  and  _115
REMARK   49  A    between atoms: _117  and  _119
REMARK   50  A    between atoms: _119  and  _120
REMARK   51  A    between atoms: _123  and  _125
REMARK   52  A    between atoms: _125  and  _126
REMARK   53  A    between atoms: _129  and  _131
REMARK   54  A    between atoms: _131  and  _132
REMARK   55  A    between atoms: _131  and  _134
REMARK   56  A    between atoms: _134  and  _135
REMARK   57  A    between atoms: _138  and  _140
REMARK   58  A    between atoms: _140  and  _141
REMARK   59  A    between atoms: _140  and  _143
REMARK   60  A    between atoms: _143  and  _144
REMARK   61  A    between atoms: _147  and  _149
REMARK   62  A    between atoms: _149  and  _150
REMARK   63  A    between atoms: _149  and  _152
REMARK   64  A    between atoms: _152  and  _153
REMARK   65  A    between atoms: _155  and  _157
REMARK   66  A    between atoms: _157  and  _158
REMARK   67  A    between atoms: _157  and  _160
REMARK   68  A    between atoms: _160  and  _161
REMARK   69  A    between atoms: _161  and  _280
REMARK   70  A    between atoms: _162  and  _164
REMARK   71  A    between atoms: _164  and  _165
REMARK   72  A    between atoms: _164  and  _167
REMARK   73  A    between atoms: _167  and  _168
REMARK   74  A    between atoms: _168  and  _169
REMARK   75  A    between atoms: _174  and  _176
REMARK   76  A    between atoms: _176  and  _177
REMARK   77  A    between atoms: _179  and  _181
REMARK   78  A    between atoms: _181  and  _182
REMARK   79  A    between atoms: _181  and  _184
REMARK   80  A    between atoms: _184  and  _185
REMARK   81  A    between atoms: _188  and  _190
REMARK   82  A    between atoms: _190  and  _191
REMARK   83  A    between atoms: _190  and  _193
REMARK   84  A    between atoms: _193  and  _194
REMARK   85  A    between atoms: _196  and  _198
REMARK   86  A    between atoms: _198  and  _199
REMARK   87  A    between atoms: _201  and  _203
REMARK   88  A    between atoms: _203  and  _204
REMARK   89  A    between atoms: _206  and  _208
REMARK   90  A    between atoms: _208  and  _209
REMARK   91  A    between atoms: _208  and  _211
REMARK   92  A    between atoms: _211  and  _212
REMARK   93  A    between atoms: _215  and  _217
REMARK   94  A    between atoms: _217  and  _218
REMARK   95  A    between atoms: _217  and  _220
REMARK   96  A    between atoms: _223  and  _225
REMARK   97  A    between atoms: _225  and  _226
REMARK   98  A    between atoms: _225  and  _228
REMARK   99  A    between atoms: _228  and  _229
REMARK  100  A    between atoms: _231  and  _233
REMARK  101  A    between atoms: _233  and  _234
REMARK  102  A    between atoms: _233  and  _236
REMARK  103  A    between atoms: _236  and  _237
REMARK  104  A    between atoms: _247  and  _249
REMARK  105  A    between atoms: _249  and  _250
REMARK  106  A    between atoms: _252  and  _254
REMARK  107  A    between atoms: _254  and  _255
REMARK  108  A    between atoms: _254  and  _257
REMARK  109  A    between atoms: _257  and  _258
REMARK  110  A    between atoms: _258  and  _259
REMARK  111  A    between atoms: _259  and  _260
REMARK  112  A    between atoms: _269  and  _271
REMARK  113  A    between atoms: _271  and  _272
REMARK  114  A    between atoms: _274  and  _276
REMARK  115  A    between atoms: _276  and  _277
REMARK  116  A    between atoms: _276  and  _279
REMARK  117  A    between atoms: _279  and  _280
REMARK  118  A    between atoms: _281  and  _283
REMARK  119  A    between atoms: _283  and  _284
REMARK  120  A    between atoms: _287  and  _289
REMARK  121  A    between atoms: _289  and  _290
REMARK  122  A    between atoms: _289  and  _292
REMARK  123  A    between atoms: _292  and  _293
REMARK  124  A    between atoms: _296  and  _298
REMARK  125  A    between atoms: _298  and  _299
REMARK  126  A    between atoms: _298  and  _301
REMARK  127  A    between atoms: _301  and  _302
REMARK  128  A    between atoms: _302  and  _303
REMARK  129  A    between atoms: _303  and  _304
REMARK  130  A    between atoms: _304  and  _305
REMARK  131  A    between atoms: _310  and  _311
REMARK  132  A    between atoms: _316  and  _318
REMARK  133  A    between atoms: _318  and  _319
REMARK  134  A    between atoms: _321  and  _323
REMARK  135  A    between atoms: _323  and  _324
REMARK  136  A    between atoms: _323  and  _326
REMARK  137  A    between atoms: _329  and  _331
REMARK  138  A    between atoms: _331  and  _332
REMARK  139  A    between atoms: _331  and  _334
REMARK  140  A    between atoms: _334  and  _335
REMARK  141  A    between atoms: _340  and  _341
REMARK                            x       y       z     vdW  Elec       q    Type
REMARK                         _______ _______ _______ _____ _____    ______ ____
ROOT
ATOM      1  CG  TYR A   1     -39.945 -15.668  14.000  0.00  0.00    -0.020 A 
ATOM      2  CD2 TYR A   1     -39.002 -15.614  15.019  0.00  0.00    -0.001 A 
ATOM      3  CE2 TYR A   1     -37.868 -16.437  14.995  0.00  0.00    +0.036 A 
ATOM      4  CZ  TYR A   1     -37.695 -17.315  13.940  0.00  0.00    +0.134 A 
ATOM      5  CE1 TYR A   1     -38.618 -17.378  12.917  0.00  0.00    +0.036 A 
ATOM      6  CD1 TYR A   1     -39.737 -16.556  12.949  0.00  0.00    -0.001 A 
ENDROOT
BRANCH   4   7
ATOM      7  OH  TYR A   1     -36.584 -18.125  13.925  0.00  0.00    -0.506 OA
ATOM      8  HH  TYR A   1     -36.050 -17.936  13.113  0.00  0.00    +0.292 HD
ENDBRANCH   4   7
BRANCH   1   9
ATOM      9  CB  TYR A   1     -41.154 -14.771  14.014  0.00  0.00    +0.051 C 
BRANCH   9  10
ATOM     10  CA  TYR A   1     -41.947 -14.799  15.328  0.00  0.00    +0.137 C 
BRANCH  10  11
ATOM     11  N   TYR A   1     -42.666 -16.076  15.467  0.00  0.00    -0.239 NA
ATOM     12  H   TYR A   1     -43.384 -16.332  14.760  0.00  0.00    +0.142 HD
ENDBRANCH  10  11
BRANCH  10  13
ATOM     13  C   TYR A   1     -42.798 -13.530  15.391  0.00  0.00    +0.224 C 
ATOM     14  O   TYR A   1     -42.264 -12.421  15.289  0.00  0.00    -0.287 OA
ENDBRANCH  10  13
ENDBRANCH   9  10
ENDBRANCH   1   9
TORSDOF 5
REMARK  Name = ../refined-set-2016/3mhw/3mhw_pocket.pdb
REMARK  141 active torsions:
REMARK  status: ('A' for Active; 'I' for Inactive)
REMARK    1  A    between atoms: _1  and  _5
REMARK    2  A    between atoms: _5  and  _6
REMARK    3  A    between atoms: _5  and  _8
REMARK    4  A    between atoms: _8  and  _9
REMARK    5  A    between atoms: _12  and  _14
REMARK    6  A    between atoms: _14  and  _15
REMARK    7  A    between atoms: _14  and  _17
REMARK    8  A    between atoms: _17  and  _18
REMARK    9  A    between atoms: _21  and  _23
REMARK   10  A    between atoms: _23  and  _24
REMARK   11  A    between atoms: _23  and  _26
REMARK   12  A    between atoms: _28  and  _30
REMARK   13  A    between atoms: _30  and  _31
REMARK   14  A    between atoms: _30  and  _33
REMARK   15  A    between atoms: _33  and  _34
REMARK   16  A    between atoms: _39  and  _41
REMARK   17  A    between atoms: _41  and  _42
REMARK   18  A    between atoms: _41  and  _44
REMARK   19  A    between atoms: _44  and  _45
REMARK   20  A    between atoms: _50  and  _52
REMARK   21  A    between atoms: _52  and  _53
REMARK   22  A    between atoms: _52  and  _55
REMARK   23  A    between atoms: _55  and  _56
REMARK   24  A    between atoms: _59  and  _61
REMARK   25  A    between atoms: _61  and  _62
REMARK   26  A    between atoms: _61  and  _64
REMARK   27  A    between atoms: _64  and  _65
REMARK   28  A    between atoms: _68  and  _70
REMARK   29  A    between atoms: _70  and  _71
REMARK   30  A    between atoms: _70  and  _73
REMARK   31  A    between atoms: _73  and  _74
REMARK   32  A    between atoms: _74  and  _75
REMARK   33  A    between atoms: _75  and  _76
REMARK   34  A    between atoms: _76  and  _77
REMARK   35  A    between atoms: _81  and  _83
REMARK   36  A    between atoms: _83  and  _84
REMARK   37  A    between atoms: _83  and  _86
REMARK   38  A    between atoms: _86  and  _87
REMARK   39  A    between atoms: _89  and  _91
REMARK   40  A    between atoms: _91  and  _92
REMARK   41  A    between atoms: _91  and  _94
REMARK   42  A    between atoms: _94  and  _95
REMARK   43  A    between atoms: _100  and  _101
REMARK   44  A    between atoms: _103  and  _105
REMARK   45  A    between atoms: _105  and  _106
REMARK   46  A    between atoms: _105  and  _108
REMARK   47  A    between atoms: _108  and  _109
REMARK   48  A    between atoms: _114  and  _115
REMARK   49  A    between atoms: _117  and  _119
REMARK   50  A    between atoms: _119  and  _120
REMARK   51  A    between atoms: _123  and  _125
REMARK   52  A    between atoms: _125  and  _126
REMARK   53  A    between atoms: _129  and  _131
REMARK   54  A    between atoms: _131  and  _132
REMARK   55  A    between atoms: _131  and  _134
REMARK   56  A    between atoms: _134  and  _135
REMARK   57  A    between atoms: _138  and  _140
REMARK   58  A    between atoms: _140  and  _141
REMARK   59  A    between atoms: _140  and  _143
REMARK   60  A    between atoms: _143  and  _144
REMARK   61  A    between atoms: _147  and  _149
REMARK   62  A    between atoms: _149  and  _150
REMARK   63  A    between atoms: _149  and  _152
REMARK   64  A    between atoms: _152  and  _153
REMARK   65  A    between atoms: _155  and  _157
REMARK   66  A    between atoms: _157  and  _158
REMARK   67  A    between atoms: _157  and  _160
REMARK   68  A    between atoms: _160  and  _161
REMARK   69  A    between atoms: _161  and  _280
REMARK   70  A    between atoms: _162  and  _164
REMARK   71  A    between atoms: _164  and  _165
REMARK   72  A    between atoms: _164  and  _167
REMARK   73  A    between atoms: _167  and  _168
REMARK   74  A    between atoms: _168  and  _169
REMARK   75  A    between atoms: _174  and  _176
REMARK   76  A    between atoms: _176  and  _177
REMARK   77  A    between atoms: _179  and  _181
REMARK   78  A    between atoms: _181  and  _182
REMARK   79  A    between atoms: _181  and  _184
REMARK   80  A    between atoms: _184  and  _185
REMARK   81  A    between atoms: _188  and  _190
REMARK   82  A    between atoms: _190  and  _191
REMARK   83  A    between atoms: _190  and  _193
REMARK   84  A    between atoms: _193  and  _194
REMARK   85  A    between atoms: _196  and  _198
REMARK   86  A    between atoms: _198  and  _199
REMARK   87  A    between atoms: _201  and  _203
REMARK   88  A    between atoms: _203  and  _204
REMARK   89  A    between atoms: _206  and  _208
REMARK   90  A    between atoms: _208  and  _209
REMARK   91  A    between atoms: _208  and  _211
REMARK   92  A    between atoms: _211  and  _212
REMARK   93  A    between atoms: _215  and  _217
REMARK   94  A    between atoms: _217  and  _218
REMARK   95  A    between atoms: _217  and  _220
REMARK   96  A    between atoms: _223  and  _225
REMARK   97  A    between atoms: _225  and  _226
REMARK   98  A    between atoms: _225  and  _228
REMARK   99  A    between atoms: _228  and  _229
REMARK  100  A    between atoms: _231  and  _233
REMARK  101  A    between atoms: _233  and  _234
REMARK  102  A    between atoms: _233  and  _236
REMARK  103  A    between atoms: _236  and  _237
REMARK  104  A    between atoms: _247  and  _249
REMARK  105  A    between atoms: _249  and  _250
REMARK  106  A    between atoms: _252  and  _254
REMARK  107  A    between atoms: _254  and  _255
REMARK  108  A    between atoms: _254  and  _257
REMARK  109  A    between atoms: _257  and  _258
REMARK  110  A    between atoms: _258  and  _259
REMARK  111  A    between atoms: _259  and  _260
REMARK  112  A    between atoms: _269  and  _271
REMARK  113  A    between atoms: _271  and  _272
REMARK  114  A    between atoms: _274  and  _276
REMARK  115  A    between atoms: _276  and  _277
REMARK  116  A    between atoms: _276  and  _279
REMARK  117  A    between atoms: _279  and  _280
REMARK  118  A    between atoms: _281  and  _283
REMARK  119  A    between atoms: _283  and  _284
REMARK  120  A    between atoms: _287  and  _289
REMARK  121  A    between atoms: _289  and  _290
REMARK  122  A    between atoms: _289  and  _292
REMARK  123  A    between atoms: _292  and  _293
REMARK  124  A    between atoms: _296  and  _298
REMARK  125  A    between atoms: _298  and  _299
REMARK  126  A    between atoms: _298  and  _301
REMARK  127  A    between atoms: _301  and  _302
REMARK  128  A    between atoms: _302  and  _303
REMARK  129  A    between atoms: _303  and  _304
REMARK  130  A    between atoms: _304  and  _305
REMARK  131  A    between atoms: _310  and  _311
REMARK  132  A    between atoms: _316  and  _318
REMARK  133  A    between atoms: _318  and  _319
REMARK  134  A    between atoms: _321  and  _323
REMARK  135  A    between atoms: _323  and  _324
REMARK  136  A    between atoms: _323  and  _326
REMARK  137  A    between atoms: _329  and  _331
REMARK  138  A    between atoms: _331  and  _332
REMARK  139  A    between atoms: _331  and  _334
REMARK  140  A    between atoms: _334  and  _335
REMARK  141  A    between atoms: _340  and  _341
REMARK                            x       y       z     vdW  Elec       q    Type
REMARK                         _______ _______ _______ _____ _____    ______ ____
ROOT
ATOM      1  C   ALA A   1     -38.525 -23.645   7.712  0.00  0.00    +0.238 C 
ATOM      2  O   ALA A   1     -37.622 -23.094   8.350  0.00  0.00    -0.274 OA
ATOM      3  N   ALA A   2     -38.970 -24.865   7.986  0.00  0.00    -0.298 N 
ATOM      4  H   ALA A   2     -39.726 -25.270   7.398  0.00  0.00    +0.150 HD
ENDROOT
BRANCH   1   5
ATOM      5  CA  ALA A   1     -39.223 -22.933   6.563  0.00  0.00    +0.145 C 
ATOM      6  CB  ALA A   1     -38.514 -23.178   5.230  0.00  0.00    +0.028 C 
BRANCH   5   7
ATOM      7  N   ALA A   1     -39.329 -21.509   6.850  0.00  0.00    -0.238 NA
ATOM      8  H   ALA A   1     -38.593 -21.048   7.422  0.00  0.00    +0.142 HD
ENDBRANCH   5   7
ENDBRANCH   1   5
BRANCH   3   9
ATOM      9  CA  ALA A   2     -38.424 -25.664   9.099  0.00  0.00    +0.137 C 
ATOM     10  CB  ALA A   2     -38.978 -25.188  10.429  0.00  0.00    +0.030 C 
BRANCH   9  11
ATOM     11  C   ALA A   2     -38.702 -27.144   8.930  0.00  0.00    +0.227 C 
ATOM     12  O   ALA A   2     -39.491 -27.580   8.090  0.00  0.00    -0.286 OA
ENDBRANCH   9  11
ENDBRANCH   3   9
TORSDOF 4
REMARK  Name = ../refined-set-2016/3mhw/3mhw_pocket.pdb
REMARK  141 active torsions:
REMARK  status: ('A' for Active; 'I' for Inactive)
REMARK    1  A    between atoms: _1  and  _5
REMARK    2  A    between atoms: _5  and  _6
REMARK    3  A    between atoms: _5  and  _8
REMARK    4  A    between atoms: _8  and  _9
REMARK    5  A    between atoms: _12  and  _14
REMARK    6  A    between atoms: _14  and  _15
REMARK    7  A    between atoms: _14  and  _17
REMARK    8  A    between atoms: _17  and  _18
REMARK    9  A    between atoms: _21  and  _23
REMARK   10  A    between atoms: _23  and  _24
REMARK   11  A    between atoms: _23  and  _26
REMARK   12  A    between atoms: _28  and  _30
REMARK   13  A    between atoms: _30  and  _31
REMARK   14  A    between atoms: _30  and  _33
REMARK   15  A    between atoms: _33  and  _34
REMARK   16  A    between atoms: _39  and  _41
REMARK   17  A    between atoms: _41  and  _42
REMARK   18  A    between atoms: _41  and  _44
REMARK   19  A    between atoms: _44  and  _45
REMARK   20  A    between atoms: _50  and  _52
REMARK   21  A    between atoms: _52  and  _53
REMARK   22  A    between atoms: _52  and  _55
REMARK   23  A    between atoms: _55  and  _56
REMARK   24  A    between atoms: _59  and  _61
REMARK   25  A    between atoms: _61  and  _62
REMARK   26  A    between atoms: _61  and  _64
REMARK   27  A    between atoms: _64  and  _65
REMARK   28  A    between atoms: _68  and  _70
REMARK   29  A    between atoms: _70  and  _71
REMARK   30  A    between atoms: _70  and  _73
REMARK   31  A    between atoms: _73  and  _74
REMARK   32  A    between atoms: _74  and  _75
REMARK   33  A    between atoms: _75  and  _76
REMARK   34  A    between atoms: _76  and  _77
REMARK   35  A    between atoms: _81  and  _83
REMARK   36  A    between atoms: _83  and  _84
REMARK   37  A    between atoms: _83  and  _86
REMARK   38  A    between atoms: _86  and  _87
REMARK   39  A    between atoms: _89  and  _91
REMARK   40  A    between atoms: _91  and  _92
REMARK   41  A    between atoms: _91  and  _94
REMARK   42  A    between atoms: _94  and  _95
REMARK   43  A    between atoms: _100  and  _101
REMARK   44  A    between atoms: _103  and  _105
REMARK   45  A    between atoms: _105  and  _106
REMARK   46  A    between atoms: _105  and  _108
REMARK   47  A    between atoms: _108  and  _109
REMARK   48  A    between atoms: _114  and  _115
REMARK   49  A    between atoms: _117  and  _119
REMARK   50  A    between atoms: _119  and  _120
REMARK   51  A    between atoms: _123  and  _125
REMARK   52  A    between atoms: _125  and  _126
REMARK   53  A    between atoms: _129  and  _131
REMARK   54  A    between atoms: _131  and  _132
REMARK   55  A    between atoms: _131  and  _134
REMARK   56  A    between atoms: _134  and  _135
REMARK   57  A    between atoms: _138  and  _140
REMARK   58  A    between atoms: _140  and  _141
REMARK   59  A    between atoms: _140  and  _143
REMARK   60  A    between atoms: _143  and  _144
REMARK   61  A    between atoms: _147  and  _149
REMARK   62  A    between atoms: _149  and  _150
REMARK   63  A    between atoms: _149  and  _152
REMARK   64  A    between atoms: _152  and  _153
REMARK   65  A    between atoms: _155  and  _157
REMARK   66  A    between atoms: _157  and  _158
REMARK   67  A    between atoms: _157  and  _160
REMARK   68  A    between atoms: _160  and  _161
REMARK   69  A    between atoms: _161  and  _280
REMARK   70  A    between atoms: _162  and  _164
REMARK   71  A    between atoms: _164  and  _165
REMARK   72  A    between atoms: _164  and  _167
REMARK   73  A    between atoms: _167  and  _168
REMARK   74  A    between atoms: _168  and  _169
REMARK   75  A    between atoms: _174  and  _176
REMARK   76  A    between atoms: _176  and  _177
REMARK   77  A    between atoms: _179  and  _181
REMARK   78  A    between atoms: _181  and  _182
REMARK   79  A    between atoms: _181  and  _184
REMARK   80  A    between atoms: _184  and  _185
REMARK   81  A    between atoms: _188  and  _190
REMARK   82  A    between atoms: _190  and  _191
REMARK   83  A    between atoms: _190  and  _193
REMARK   84  A    between atoms: _193  and  _194
REMARK   85  A    between atoms: _196  and  _198
REMARK   86  A    between atoms: _198  and  _199
REMARK   87  A    between atoms: _201  and  _203
REMARK   88  A    between atoms: _203  and  _204
REMARK   89  A    between atoms: _206  and  _208
REMARK   90  A    between atoms: _208  and  _209
REMARK   91  A    between atoms: _208  and  _211
REMARK   92  A    between atoms: _211  and  _212
REMARK   93  A    between atoms: _215  and  _217
REMARK   94  A    between atoms: _217  and  _218
REMARK   95  A    between atoms: _217  and  _220
REMARK   96  A    between atoms: _223  and  _225
REMARK   97  A    between atoms: _225  and  _226
REMARK   98  A    between atoms: _225  and  _228
REMARK   99  A    between atoms: _228  and  _229
REMARK  100  A    between atoms: _231  and  _233
REMARK  101  A    between atoms: _233  and  _234
REMARK  102  A    between atoms: _233  and  _236
REMARK  103  A    between atoms: _236  and  _237
REMARK  104  A    between atoms: _247  and  _249
REMARK  105  A    between atoms: _249  and  _250
REMARK  106  A    between atoms: _252  and  _254
REMARK  107  A    between atoms: _254  and  _255
REMARK  108  A    between atoms: _254  and  _257
REMARK  109  A    between atoms: _257  and  _258
REMARK  110  A    between atoms: _258  and  _259
REMARK  111  A    between atoms: _259  and  _260
REMARK  112  A    between atoms: _269  and  _271
REMARK  113  A    between atoms: _271  and  _272
REMARK  114  A    between atoms: _274  and  _276
REMARK  115  A    between atoms: _276  and  _277
REMARK  116  A    between atoms: _276  and  _279
REMARK  117  A    between atoms: _279  and  _280
REMARK  118  A    between atoms: _281  and  _283
REMARK  119  A    between atoms: _283  and  _284
REMARK  120  A    between atoms: _287  and  _289
REMARK  121  A    between atoms: _289  and  _290
REMARK  122  A    between atoms: _289  and  _292
REMARK  123  A    between atoms: _292  and  _293
REMARK  124  A    between atoms: _296  and  _298
REMARK  125  A    between atoms: _298  and  _299
REMARK  126  A    between atoms: _298  and  _301
REMARK  127  A    between atoms: _301  and  _302
REMARK  128  A    between atoms: _302  and  _303
REMARK  129  A    between atoms: _303  and  _304
REMARK  130  A    between atoms: _304  and  _305
REMARK  131  A    between atoms: _310  and  _311
REMARK  132  A    between atoms: _316  and  _318
REMARK  133  A    between atoms: _318  and  _319
REMARK  134  A    between atoms: _321  and  _323
REMARK  135  A    between atoms: _323  and  _324
REMARK  136  A    between atoms: _323  and  _326
REMARK  137  A    between atoms: _329  and  _331
REMARK  138  A    between atoms: _331  and  _332
REMARK  139  A    between atoms: _331  and  _334
REMARK  140  A    between atoms: _334  and  _335
REMARK  141  A    between atoms: _340  and  _341
REMARK                            x       y       z     vdW  Elec       q    Type
REMARK                         _______ _______ _______ _____ _____    ______ ____
ROOT
ATOM      1  CA  SER A   8     -30.819 -22.876  14.715  0.00  0.00    +0.160 C 
ENDROOT
BRANCH   1   2
ATOM      2  N   SER A   8     -30.808 -21.925  15.827  0.00  0.00    -0.296 N 
ATOM      3  H   SER A   8     -30.701 -22.297  16.792  0.00  0.00    +0.150 HD
ATOM      4  C   ASP A   7     -30.928 -20.609  15.668  0.00  0.00    +0.243 C 
ATOM      5  O   ASP A   7     -31.147 -20.066  14.569  0.00  0.00    -0.273 OA
BRANCH   4   6
ATOM      6  CA  ASP A   7     -30.796 -19.789  16.938  0.00  0.00    +0.176 C 
BRANCH   6   7
ATOM      7  N   ASP A   7     -31.433 -18.481  16.809  0.00  0.00    -0.295 N 
ATOM      8  H   ASP A   7     -30.900 -17.591  16.884  0.00  0.00    +0.150 HD
ATOM      9  C   GLY A   6     -32.990 -18.517  16.547  0.00  0.00    +0.241 C 
ATOM     10  O   GLY A   6     -33.667 -19.538  16.544  0.00  0.00    -0.273 OA
BRANCH   9  11
ATOM     11  CA  GLY A   6     -33.589 -17.150  16.218  0.00  0.00    +0.149 C 
BRANCH  11  12
ATOM     12  N   GLY A   6     -33.985 -17.121  14.825  0.00  0.00    -0.297 N 
ATOM     13  H   GLY A   6     -34.944 -17.417  14.552  0.00  0.00    +0.150 HD
ATOM     14  C   GLN A   5     -33.126 -16.717  13.895  0.00  0.00    +0.243 C 
ATOM     15  O   GLN A   5     -32.000 -16.289  14.153  0.00  0.00    -0.273 OA
BRANCH  14  16
ATOM     16  CA  GLN A   5     -33.574 -16.831  12.464  0.00  0.00    +0.176 C 
BRANCH  16  17
ATOM     17  N   GLN A   5     -32.795 -15.942  11.633  0.00  0.00    -0.295 N 
ATOM     18  H   GLN A   5     -32.045 -15.358  12.054  0.00  0.00    +0.150 HD
ATOM     19  C   TRP A   4     -33.040 -15.873  10.331  0.00  0.00    +0.241 C 
ATOM     20  O   TRP A   4     -33.816 -16.634   9.753  0.00  0.00    -0.273 OA
BRANCH  19  21
ATOM     21  CA  TRP A   4     -32.295 -14.787   9.572  0.00  0.00    +0.153 C 
BRANCH  21  22
ATOM     22  N   TRP A   4     -32.396 -14.918   8.125  0.00  0.00    -0.297 N 
ATOM     23  H   TRP A   4     -33.179 -15.461   7.708  0.00  0.00    +0.150 HD
ATOM     24  C   SER A   3     -31.493 -14.348   7.334  0.00  0.00    +0.243 C 
ATOM     25  O   SER A   3     -30.513 -13.761   7.782  0.00  0.00    -0.273 OA
BRANCH  24  26
ATOM     26  CA  SER A   3     -31.710 -14.419   5.816  0.00  0.00    +0.178 C 
BRANCH  26  27
ATOM     27  N   SER A   3     -31.783 -15.764   5.243  0.00  0.00    -0.295 N 
ATOM     28  H   SER A   3     -32.491 -16.436   5.602  0.00  0.00    +0.150 HD
ATOM     29  C   VAL A   2     -30.955 -16.141   4.266  0.00  0.00    +0.241 C 
ATOM     30  O   VAL A   2     -29.997 -15.465   3.907  0.00  0.00    -0.273 OA
BRANCH  29  31
ATOM     31  CA  VAL A   2     -31.201 -17.519   3.634  0.00  0.00    +0.148 C 
BRANCH  31  32
ATOM     32  N   VAL A   2     -31.373 -17.398   2.182  0.00  0.00    -0.297 N 
ATOM     33  C   ILE A   1     -32.300 -16.596   1.669  0.00  0.00    +0.238 C 
ATOM     34  O   ILE A   1     -33.071 -15.926   2.389  0.00  0.00    -0.274 OA
ATOM     35  H   VAL A   2     -30.761 -17.947   1.546  0.00  0.00    +0.150 HD
BRANCH  33  36
ATOM     36  CA  ILE A   1     -32.399 -16.548   0.150  0.00  0.00    +0.145 C 
BRANCH  36  37
ATOM     37  CB  ILE A   1     -31.963 -15.143  -0.348  0.00  0.00    +0.025 C 
ATOM     38  CG2 ILE A   1     -30.568 -14.810   0.141  0.00  0.00    +0.002 C 
BRANCH  37  39
ATOM     39  CG1 ILE A   1     -32.039 -15.087  -1.870  0.00  0.00    +0.002 C 
ATOM     40  CD1 ILE A   1     -31.992 -13.655  -2.426  0.00  0.00    +0.000 C 
ENDBRANCH  37  39
ENDBRANCH  36  37
BRANCH  36  41
ATOM     41  N   ILE A   1     -33.792 -16.805  -0.179  0.00  0.00    -0.238 NA
ATOM     42  H   ILE A   1     -34.519 -16.205   0.261  0.00  0.00    +0.142 HD
ENDBRANCH  36  41
ENDBRANCH  33  36
ENDBRANCH  31  32
BRANCH  31  43
ATOM     43  CB  VAL A   2     -30.022 -18.476   3.990  0.00  0.00    +0.027 C 
ATOM     44  CG2 VAL A   2     -29.847 -18.599   5.510  0.00  0.00    +0.002 C 
ATOM     45  CG1 VAL A   2     -30.216 -19.850   3.357  0.00  0.00    +0.002 C 
ENDBRANCH  31  43
ENDBRANCH  29  31
ENDBRANCH  26  27
BRANCH  26  46
ATOM     46  CB  SER A   3     -32.935 -13.610   5.394  0.00  0.00    +0.166 C 
BRANCH  46  47
ATOM     47  OG  SER A   3     -32.935 -12.310   6.005  0.00  0.00    -0.380 OA
ATOM     48  H   SER A   3     -32.121 -11.818   5.731  0.00  0.00    +0.211 HD
ENDBRANCH  46  47
ENDBRANCH  26  46
ENDBRANCH  24  26
ENDBRANCH  21  22
BRANCH  21  49
ATOM     49  CB  TRP A   4     -32.756 -13.398  10.040  0.00  0.00    +0.057 C 
BRANCH  49  50
ATOM     50  CG  TRP A   4     -34.212 -13.054   9.815  0.00  0.00    -0.002 A 
ATOM     51  CD2 TRP A   4     -35.296 -13.228  10.752  0.00  0.00    +0.013 A 
ATOM     52  CE3 TRP A   4     -35.382 -13.732  12.062  0.00  0.00    +0.001 A 
ATOM     53  CZ3 TRP A   4     -36.621 -13.745  12.689  0.00  0.00    +0.000 A 
ATOM     54  CH2 TRP A   4     -37.773 -13.264  12.034  0.00  0.00    +0.001 A 
ATOM     55  CZ2 TRP A   4     -37.725 -12.766  10.754  0.00  0.00    +0.017 A 
ATOM     56  CE2 TRP A   4     -36.475 -12.747  10.123  0.00  0.00    +0.056 A 
ATOM     57  NE1 TRP A   4     -36.124 -12.309   8.872  0.00  0.00    -0.352 N 
ATOM     58  HE1 TRP A   4     -36.774 -11.904   8.168  0.00  0.00    +0.166 HD
ATOM     59  CD1 TRP A   4     -34.760 -12.494   8.698  0.00  0.00    +0.068 A 
ENDBRANCH  49  50
ENDBRANCH  21  49
ENDBRANCH  19  21
ENDBRANCH  16  17
ENDBRANCH  14  16
ENDBRANCH  11  12
BRANCH  11  60
ATOM     60  CB  GLY A   6     -34.752 -16.815  17.161  0.00  0.00    +0.033 C 
BRANCH  60  61
ATOM     61  CG  GLY A   6     -34.380 -16.819  18.662  0.00  0.00    +0.045 C 
BRANCH  61  62
ATOM     62  CD  GLY A   6     -33.208 -15.869  19.008  0.00  0.00    +0.174 C 
BRANCH  62  63
ATOM     63  NE  GLY A   6     -31.972 -16.249  18.312  0.00  0.00    -0.265 N 
ATOM     64  CZ  GLY A   6     -30.934 -15.451  18.069  0.00  0.00    +0.342 C 
ATOM     65  NH2 GLY A   6     -30.936 -14.184  18.476  0.00  0.00    -0.292 N 
ATOM     66 HH21 GLY A   6     -31.756 -13.805  18.991  0.00  0.00    +0.255 HD
ATOM     67 HH22 GLY A   6     -30.118 -13.573  18.279  0.00  0.00    +0.255 HD
ATOM     68  NH1 GLY A   6     -29.883 -15.931  17.412  0.00  0.00    -0.292 N 
ATOM     69 HH11 GLY A   6     -29.067 -15.317  17.217  0.00  0.00    +0.255 HD
ATOM     70 HH12 GLY A   6     -29.877 -16.921  17.093  0.00  0.00    +0.255 HD
ATOM     71  HE  GLY A   6     -31.901 -17.231  17.978  0.00  0.00    +0.259 HD
ENDBRANCH  62  63
ENDBRANCH  61  62
ENDBRANCH  60  61
ENDBRANCH  11  60
ENDBRANCH   9  11
ENDBRANCH   6   7
ENDBRANCH   4   6
ENDBRANCH   1   2
BRANCH   1  72
ATOM     72  C   SER A   8     -31.447 -24.173  15.209  0.00  0.00    +0.242 C 
ATOM     73  O   SER A   8     -31.123 -24.629  16.310  0.00  0.00    -0.273 OA
ATOM     74  N   GLY A   9     -32.358 -24.744  14.415  0.00  0.00    -0.297 N 
ATOM     75  H   GLY A   9     -32.645 -24.258  13.542  0.00  0.00    +0.150 HD
BRANCH  74  76
ATOM     76  CA  GLY A   9     -32.960 -26.033  14.742  0.00  0.00    +0.149 C 
ATOM     77  CB  GLY A   9     -31.929 -27.187  14.556  0.00  0.00    +0.031 C 
BRANCH  76  78
ATOM     78  C   GLY A   9     -33.540 -25.993  16.163  0.00  0.00    +0.241 C 
ATOM     79  O   GLY A   9     -33.305 -26.892  16.979  0.00  0.00    -0.273 OA
ATOM     80  N   GLY A  10     -34.265 -24.908  16.445  0.00  0.00    -0.298 N 
ATOM     81  H   GLY A  10     -34.332 -24.165  15.720  0.00  0.00    +0.150 HD
BRANCH  80  82
ATOM     82  CA  GLY A  10     -34.971 -24.698  17.710  0.00  0.00    +0.137 C 
BRANCH  82  83
ATOM     83  C   GLY A  10     -36.473 -24.771  17.499  0.00  0.00    +0.227 C 
ATOM     84  O   GLY A  10     -36.992 -24.230  16.522  0.00  0.00    -0.286 OA
ENDBRANCH  82  83
BRANCH  82  85
ATOM     85  CB  GLY A  10     -34.618 -23.342  18.329  0.00  0.00    +0.028 C 
BRANCH  85  86
ATOM     86  CG  GLY A  10     -33.334 -23.183  19.135  0.00  0.00    +0.002 C 
ATOM     87  CD2 GLY A  10     -33.370 -24.048  20.387  0.00  0.00    +0.000 C 
ATOM     88  CD1 GLY A  10     -33.159 -21.723  19.509  0.00  0.00    +0.000 C 
ENDBRANCH  85  86
ENDBRANCH  82  85
ENDBRANCH  80  82
ENDBRANCH  76  78
ENDBRANCH  74  76
ENDBRANCH   1  72
BRANCH   1  89
ATOM     89  CB  SER A   8     -29.381 -23.158  14.238  0.00  0.00    +0.098 C 
BRANCH  89  90
ATOM     90  SG  SER A   8     -28.400 -21.651  13.899  0.00  0.00    -0.080 S 
BRANCH  90  91
ATOM     91  SG  TRP A   4     -26.537 -22.398  13.335  0.00  0.00    -0.080 S 
BRANCH  91  92
ATOM     92  CB  TRP A   4     -26.701 -22.870  11.553  0.00  0.00    +0.098 C 
BRANCH  92  93
ATOM     93  CA  TRP A   4     -27.337 -21.760  10.702  0.00  0.00    +0.160 C 
BRANCH  93  94
ATOM     94  C   TRP A   4     -26.321 -20.702  10.304  0.00  0.00    +0.242 C 
ATOM     95  N   GLN A   5     -25.614 -20.149  11.289  0.00  0.00    -0.297 N 
ATOM     96  H   GLN A   5     -25.783 -20.460  12.267  0.00  0.00    +0.150 HD
ATOM     97  O   TRP A   4     -26.214 -20.360   9.144  0.00  0.00    -0.273 OA
BRANCH  95  98
ATOM     98  CA  GLN A   5     -24.611 -19.121  11.038  0.00  0.00    +0.149 C 
BRANCH  98  99
ATOM     99  C   GLN A   5     -23.633 -19.543   9.945  0.00  0.00    +0.241 C 
ATOM    100  O   GLN A   5     -23.085 -20.647   9.998  0.00  0.00    -0.273 OA
ATOM    101  N   GLY A   6     -23.437 -18.674   8.952  0.00  0.00    -0.295 N 
ATOM    102  H   GLY A   6     -23.883 -17.736   9.000  0.00  0.00    +0.150 HD
BRANCH 101 103
ATOM    103  CA  GLY A   6     -22.610 -19.014   7.801  0.00  0.00    +0.176 C 
BRANCH 103 104
ATOM    104  C   GLY A   6     -23.388 -19.483   6.577  0.00  0.00    +0.243 C 
ATOM    105  N   ASP A   7     -24.675 -19.797   6.746  0.00  0.00    -0.296 N 
ATOM    106  H   ASP A   7     -25.082 -19.770   7.703  0.00  0.00    +0.150 HD
ATOM    107  O   GLY A   6     -22.818 -19.525   5.481  0.00  0.00    -0.273 OA
BRANCH 105 108
ATOM    108  CA  ASP A   7     -25.535 -20.182   5.609  0.00  0.00    +0.160 C 
BRANCH 108 109
ATOM    109  C   ASP A   7     -26.212 -18.998   4.930  0.00  0.00    +0.241 C 
ATOM    110  N   SER A   8     -26.111 -17.819   5.532  0.00  0.00    -0.295 N 
ATOM    111  H   SER A   8     -25.539 -17.733   6.397  0.00  0.00    +0.150 HD
ATOM    112  O   ASP A   7     -26.806 -19.155   3.849  0.00  0.00    -0.273 OA
BRANCH 110 113
ATOM    113  CA  SER A   8     -26.791 -16.640   4.998  0.00  0.00    +0.178 C 
BRANCH 113 114
ATOM    114  C   SER A   8     -26.416 -16.371   3.556  0.00  0.00    +0.243 C 
ATOM    115  O   SER A   8     -25.287 -16.619   3.147  0.00  0.00    -0.273 OA
ATOM    116  N   GLY A   9     -27.390 -15.889   2.786  0.00  0.00    -0.295 N 
ATOM    117  H   GLY A   9     -28.342 -15.774   3.188  0.00  0.00    +0.150 HD
BRANCH 116 118
ATOM    118  CA  GLY A   9     -27.160 -15.519   1.400  0.00  0.00    +0.176 C 
BRANCH 118 119
ATOM    119  C   GLY A   9     -27.376 -16.686   0.452  0.00  0.00    +0.243 C 
ATOM    120  N   GLY A  10     -27.347 -17.920   0.966  0.00  0.00    -0.296 N 
ATOM    121  H   GLY A  10     -27.222 -18.047   1.991  0.00  0.00    +0.150 HD
ATOM    122  O   GLY A   9     -27.561 -16.474  -0.757  0.00  0.00    -0.273 OA
BRANCH 120 123
ATOM    123  CA  GLY A  10     -27.489 -19.098   0.102  0.00  0.00    +0.163 C 
BRANCH 123 124
ATOM    124  C   GLY A  10     -28.902 -19.395  -0.351  0.00  0.00    +0.229 C 
ATOM    125  O   GLY A  10     -29.855 -18.755   0.102  0.00  0.00    -0.286 OA
ENDBRANCH 123 124
ENDBRANCH 120 123
ENDBRANCH 118 119
ENDBRANCH 116 118
ENDBRANCH 113 114
BRANCH 113 126
ATOM    126  CB  SER A   8     -26.407 -15.420   5.817  0.00  0.00    +0.166 C 
BRANCH 126 127
ATOM    127  OG  SER A   8     -27.050 -15.496   7.061  0.00  0.00    -0.380 OA
ATOM    128  H   SER A   8     -26.808 -14.705   7.605  0.00  0.00    +0.211 HD
ENDBRANCH 126 127
ENDBRANCH 113 126
ENDBRANCH 110 113
ENDBRANCH 108 109
BRANCH 108 129
ATOM    129  CB  ASP A   7     -26.584 -21.211   6.042  0.00  0.00    +0.143 C 
BRANCH 129 130
ATOM    130  CG  ASP A   7     -25.983 -22.580   6.327  0.00  0.00    +0.367 C 
ATOM    131  OD2 ASP A   7     -26.407 -23.192   7.328  0.00  0.00    -0.246 OA
ATOM    132  OD1 ASP A   7     -25.092 -23.015   5.562  0.00  0.00    -0.246 OA
ENDBRANCH 129 130
ENDBRANCH 108 129
ENDBRANCH 105 108
ENDBRANCH 103 104
ENDBRANCH 101 103
ENDBRANCH  98  99
BRANCH  98 133
ATOM    133  CB  GLN A   5     -23.834 -18.817  12.323  0.00  0.00    +0.039 C 
BRANCH 133 134
ATOM    134  CG  GLN A   5     -22.782 -17.757  12.122  0.00  0.00    +0.087 C 
BRANCH 134 135
ATOM    135  CD  GLN A   5     -22.082 -17.331  13.398  0.00  0.00    +0.219 C 
ATOM    136  OE1 GLN A   5     -22.143 -18.009  14.420  0.00  0.00    -0.275 OA
ATOM    137  NE2 GLN A   5     -21.406 -16.187  13.336  0.00  0.00    -0.329 N 
ATOM    138 HE21 GLN A   5     -20.902 -15.835  14.175  0.00  0.00    +0.145 HD
ATOM    139 HE22 GLN A   5     -21.381 -15.645  12.449  0.00  0.00    +0.145 HD
ENDBRANCH 134 135
ENDBRANCH 133 134
ENDBRANCH  98 133
ENDBRANCH  95  98
ENDBRANCH  93  94
BRANCH  93 142
ATOM    140  C   SER A   3     -29.239 -22.767   9.595  0.00  0.00    +0.243 C 
ATOM    141  O   SER A   3     -29.885 -22.768  10.658  0.00  0.00    -0.273 OA
ATOM    142  N   TRP A   4     -27.992 -22.322   9.529  0.00  0.00    -0.296 N 
ATOM    143  H   TRP A   4     -27.475 -22.375   8.628  0.00  0.00    +0.150 HD
BRANCH 140 144
ATOM    144  CA  SER A   3     -29.847 -23.285   8.291  0.00  0.00    +0.178 C 
BRANCH 144 147
ATOM    145  C   VAL A   2     -30.816 -25.357   9.099  0.00  0.00    +0.241 C 
ATOM    146  O   VAL A   2     -29.739 -25.965   9.081  0.00  0.00    -0.273 OA
ATOM    147  N   SER A   3     -30.979 -24.135   8.613  0.00  0.00    -0.295 N 
ATOM    148  H   SER A   3     -31.943 -23.776   8.458  0.00  0.00    +0.150 HD
BRANCH 145 149
ATOM    149  CA  VAL A   2     -32.059 -26.013   9.671  0.00  0.00    +0.160 C 
BRANCH 149 152
ATOM    150  C   ILE A   1     -32.795 -28.264  10.256  0.00  0.00    +0.241 C 
ATOM    151  O   ILE A   1     -33.969 -27.892  10.339  0.00  0.00    -0.274 OA
ATOM    152  N   VAL A   2     -31.812 -27.449   9.867  0.00  0.00    -0.297 N 
ATOM    153  H   VAL A   2     -30.860 -27.834   9.701  0.00  0.00    +0.150 HD
BRANCH 150 154
ATOM    154  CA  ILE A   1     -32.410 -29.694  10.653  0.00  0.00    +0.172 C 
BRANCH 154 155
ATOM    155  CB  ILE A   1     -32.401 -30.709   9.452  0.00  0.00    +0.135 C 
ATOM    156  CG2 ILE A   1     -33.745 -30.763   8.743  0.00  0.00    +0.034 C 
BRANCH 155 157
ATOM    157  OG1 ILE A   1     -31.414 -30.318   8.500  0.00  0.00    -0.383 OA
ATOM    158  HG1 ILE A   1     -31.412 -30.960   7.746  0.00  0.00    +0.210 HD
ENDBRANCH 155 157
ENDBRANCH 154 155
BRANCH 154 159
ATOM    159  N   ILE A   1     -33.318 -30.130  11.716  0.00  0.00    -0.236 NA
ATOM    160  H   ILE A   1     -34.317 -29.845  11.674  0.00  0.00    +0.142 HD
ENDBRANCH 154 159
ENDBRANCH 150 154
ENDBRANCH 149 152
BRANCH 149 161
ATOM    161  CB  VAL A   2     -32.398 -25.368  11.038  0.00  0.00    +0.143 C 
BRANCH 161 162
ATOM    162  CG  VAL A   2     -33.110 -24.003  10.939  0.00  0.00    +0.367 C 
ATOM    163  OD2 VAL A   2     -33.416 -23.465  12.032  0.00  0.00    -0.246 OA
ATOM    164  OD1 VAL A   2     -33.374 -23.457   9.843  0.00  0.00    -0.246 OA
ENDBRANCH 161 162
ENDBRANCH 149 161
ENDBRANCH 145 149
ENDBRANCH 144 147
BRANCH 144 165
ATOM    165  CB  SER A   3     -30.299 -22.131   7.399  0.00  0.00    +0.166 C 
BRANCH 165 166
ATOM    166  OG  SER A   3     -31.364 -21.425   8.009  0.00  0.00    -0.380 OA
ATOM    167  H   SER A   3     -31.062 -21.062   8.879  0.00  0.00    +0.211 HD
ENDBRANCH 165 166
ENDBRANCH 144 165
ENDBRANCH 140 144
ENDBRANCH  93 142
ENDBRANCH  92  93
ENDBRANCH  91  92
ENDBRANCH  90  91
ENDBRANCH  89  90
ENDBRANCH   1  89
TORSDOF 71
REMARK  Name = ../refined-set-2016/3mhw/3mhw_pocket.pdb
REMARK  141 active torsions:
REMARK  status: ('A' for Active; 'I' for Inactive)
REMARK    1  A    between atoms: _1  and  _5
REMARK    2  A    between atoms: _5  and  _6
REMARK    3  A    between atoms: _5  and  _8
REMARK    4  A    between atoms: _8  and  _9
REMARK    5  A    between atoms: _12  and  _14
REMARK    6  A    between atoms: _14  and  _15
REMARK    7  A    between atoms: _14  and  _17
REMARK    8  A    between atoms: _17  and  _18
REMARK    9  A    between atoms: _21  and  _23
REMARK   10  A    between atoms: _23  and  _24
REMARK   11  A    between atoms: _23  and  _26
REMARK   12  A    between atoms: _28  and  _30
REMARK   13  A    between atoms: _30  and  _31
REMARK   14  A    between atoms: _30  and  _33
REMARK   15  A    between atoms: _33  and  _34
REMARK   16  A    between atoms: _39  and  _41
REMARK   17  A    between atoms: _41  and  _42
REMARK   18  A    between atoms: _41  and  _44
REMARK   19  A    between atoms: _44  and  _45
REMARK   20  A    between atoms: _50  and  _52
REMARK   21  A    between atoms: _52  and  _53
REMARK   22  A    between atoms: _52  and  _55
REMARK   23  A    between atoms: _55  and  _56
REMARK   24  A    between atoms: _59  and  _61
REMARK   25  A    between atoms: _61  and  _62
REMARK   26  A    between atoms: _61  and  _64
REMARK   27  A    between atoms: _64  and  _65
REMARK   28  A    between atoms: _68  and  _70
REMARK   29  A    between atoms: _70  and  _71
REMARK   30  A    between atoms: _70  and  _73
REMARK   31  A    between atoms: _73  and  _74
REMARK   32  A    between atoms: _74  and  _75
REMARK   33  A    between atoms: _75  and  _76
REMARK   34  A    between atoms: _76  and  _77
REMARK   35  A    between atoms: _81  and  _83
REMARK   36  A    between atoms: _83  and  _84
REMARK   37  A    between atoms: _83  and  _86
REMARK   38  A    between atoms: _86  and  _87
REMARK   39  A    between atoms: _89  and  _91
REMARK   40  A    between atoms: _91  and  _92
REMARK   41  A    between atoms: _91  and  _94
REMARK   42  A    between atoms: _94  and  _95
REMARK   43  A    between atoms: _100  and  _101
REMARK   44  A    between atoms: _103  and  _105
REMARK   45  A    between atoms: _105  and  _106
REMARK   46  A    between atoms: _105  and  _108
REMARK   47  A    between atoms: _108  and  _109
REMARK   48  A    between atoms: _114  and  _115
REMARK   49  A    between atoms: _117  and  _119
REMARK   50  A    between atoms: _119  and  _120
REMARK   51  A    between atoms: _123  and  _125
REMARK   52  A    between atoms: _125  and  _126
REMARK   53  A    between atoms: _129  and  _131
REMARK   54  A    between atoms: _131  and  _132
REMARK   55  A    between atoms: _131  and  _134
REMARK   56  A    between atoms: _134  and  _135
REMARK   57  A    between atoms: _138  and  _140
REMARK   58  A    between atoms: _140  and  _141
REMARK   59  A    between atoms: _140  and  _143
REMARK   60  A    between atoms: _143  and  _144
REMARK   61  A    between atoms: _147  and  _149
REMARK   62  A    between atoms: _149  and  _150
REMARK   63  A    between atoms: _149  and  _152
REMARK   64  A    between atoms: _152  and  _153
REMARK   65  A    between atoms: _155  and  _157
REMARK   66  A    between atoms: _157  and  _158
REMARK   67  A    between atoms: _157  and  _160
REMARK   68  A    between atoms: _160  and  _161
REMARK   69  A    between atoms: _161  and  _280
REMARK   70  A    between atoms: _162  and  _164
REMARK   71  A    between atoms: _164  and  _165
REMARK   72  A    between atoms: _164  and  _167
REMARK   73  A    between atoms: _167  and  _168
REMARK   74  A    between atoms: _168  and  _169
REMARK   75  A    between atoms: _174  and  _176
REMARK   76  A    between atoms: _176  and  _177
REMARK   77  A    between atoms: _179  and  _181
REMARK   78  A    between atoms: _181  and  _182
REMARK   79  A    between atoms: _181  and  _184
REMARK   80  A    between atoms: _184  and  _185
REMARK   81  A    between atoms: _188  and  _190
REMARK   82  A    between atoms: _190  and  _191
REMARK   83  A    between atoms: _190  and  _193
REMARK   84  A    between atoms: _193  and  _194
REMARK   85  A    between atoms: _196  and  _198
REMARK   86  A    between atoms: _198  and  _199
REMARK   87  A    between atoms: _201  and  _203
REMARK   88  A    between atoms: _203  and  _204
REMARK   89  A    between atoms: _206  and  _208
REMARK   90  A    between atoms: _208  and  _209
REMARK   91  A    between atoms: _208  and  _211
REMARK   92  A    between atoms: _211  and  _212
REMARK   93  A    between atoms: _215  and  _217
REMARK   94  A    between atoms: _217  and  _218
REMARK   95  A    between atoms: _217  and  _220
REMARK   96  A    between atoms: _223  and  _225
REMARK   97  A    between atoms: _225  and  _226
REMARK   98  A    between atoms: _225  and  _228
REMARK   99  A    between atoms: _228  and  _229
REMARK  100  A    between atoms: _231  and  _233
REMARK  101  A    between atoms: _233  and  _234
REMARK  102  A    between atoms: _233  and  _236
REMARK  103  A    between atoms: _236  and  _237
REMARK  104  A    between atoms: _247  and  _249
REMARK  105  A    between atoms: _249  and  _250
REMARK  106  A    between atoms: _252  and  _254
REMARK  107  A    between atoms: _254  and  _255
REMARK  108  A    between atoms: _254  and  _257
REMARK  109  A    between atoms: _257  and  _258
REMARK  110  A    between atoms: _258  and  _259
REMARK  111  A    between atoms: _259  and  _260
REMARK  112  A    between atoms: _269  and  _271
REMARK  113  A    between atoms: _271  and  _272
REMARK  114  A    between atoms: _274  and  _276
REMARK  115  A    between atoms: _276  and  _277
REMARK  116  A    between atoms: _276  and  _279
REMARK  117  A    between atoms: _279  and  _280
REMARK  118  A    between atoms: _281  and  _283
REMARK  119  A    between atoms: _283  and  _284
REMARK  120  A    between atoms: _287  and  _289
REMARK  121  A    between atoms: _289  and  _290
REMARK  122  A    between atoms: _289  and  _292
REMARK  123  A    between atoms: _292  and  _293
REMARK  124  A    between atoms: _296  and  _298
REMARK  125  A    between atoms: _298  and  _299
REMARK  126  A    between atoms: _298  and  _301
REMARK  127  A    between atoms: _301  and  _302
REMARK  128  A    between atoms: _302  and  _303
REMARK  129  A    between atoms: _303  and  _304
REMARK  130  A    between atoms: _304  and  _305
REMARK  131  A    between atoms: _310  and  _311
REMARK  132  A    between atoms: _316  and  _318
REMARK  133  A    between atoms: _318  and  _319
REMARK  134  A    between atoms: _321  and  _323
REMARK  135  A    between atoms: _323  and  _324
REMARK  136  A    between atoms: _323  and  _326
REMARK  137  A    between atoms: _329  and  _331
REMARK  138  A    between atoms: _331  and  _332
REMARK  139  A    between atoms: _331  and  _334
REMARK  140  A    between atoms: _334  and  _335
REMARK  141  A    between atoms: _340  and  _341
REMARK                            x       y       z     vdW  Elec       q    Type
REMARK                         _______ _______ _______ _____ _____    ______ ____
ROOT
ATOM      1  C   GLY A   3     -36.265 -19.324   8.560  0.00  0.00    +0.243 C 
ATOM      2  N   VAL A   4     -35.758 -18.106   8.351  0.00  0.00    -0.297 N 
ATOM      3  H   VAL A   4     -34.823 -17.876   8.744  0.00  0.00    +0.150 HD
ATOM      4  O   GLY A   3     -37.381 -19.684   8.164  0.00  0.00    -0.273 OA
ENDROOT
BRANCH   1   5
ATOM      5  CA  GLY A   3     -35.399 -20.280   9.352  0.00  0.00    +0.176 C 
BRANCH   5   8
ATOM      6  C   PRO A   2     -36.886 -20.648  11.212  0.00  0.00    +0.245 C 
ATOM      7  O   PRO A   2     -36.585 -19.567  11.699  0.00  0.00    -0.273 OA
ATOM      8  N   GLY A   3     -36.270 -21.142  10.143  0.00  0.00    -0.295 N 
ATOM      9  H   GLY A   3     -36.408 -22.137   9.872  0.00  0.00    +0.150 HD
BRANCH   6  16
ATOM     10  C   LYS A   1     -37.631 -21.222  14.175  0.00  0.00    +0.242 C 
ATOM     11  O   LYS A   1     -36.494 -21.676  14.050  0.00  0.00    -0.273 OA
ATOM     12  N   PRO A   2     -38.461 -21.075  13.131  0.00  0.00    -0.264 N 
ATOM     13  CD  PRO A   2     -39.889 -20.695  13.184  0.00  0.00    +0.120 C 
ATOM     14  CG  PRO A   2     -40.362 -20.849  11.791  0.00  0.00    -0.007 C 
ATOM     15  CB  PRO A   2     -39.268 -21.284  10.916  0.00  0.00    -0.000 C 
ATOM     16  CA  PRO A   2     -38.026 -21.483  11.793  0.00  0.00    +0.174 C 
BRANCH  10  17
ATOM     17  CA  LYS A   1     -38.151 -20.815  15.543  0.00  0.00    +0.145 C 
BRANCH  17  18
ATOM     18  N   LYS A   1     -38.984 -21.883  16.066  0.00  0.00    -0.238 NA
ATOM     19  H   LYS A   1     -38.635 -22.863  16.051  0.00  0.00    +0.142 HD
ENDBRANCH  17  18
BRANCH  17  20
ATOM     20  CB  LYS A   1     -37.002 -20.466  16.499  0.00  0.00    +0.026 C 
BRANCH  20  21
ATOM     21  CG  LYS A   1     -37.465 -20.091  17.915  0.00  0.00    -0.000 C 
BRANCH  21  22
ATOM     22  CD  LYS A   1     -38.271 -18.792  17.930  0.00  0.00    -0.024 C 
BRANCH  22  23
ATOM     23  CE  LYS A   1     -39.187 -18.785  19.134  0.00  0.00    -0.086 C 
BRANCH  23  24
ATOM     24  NZ  LYS A   1     -39.930 -17.512  19.208  0.00  0.00    +0.380 N 
ATOM     25  HZ1 LYS A   1     -40.554 -17.524  20.040  0.00  0.00    -0.089 HD
ATOM     26  HZ2 LYS A   1     -39.257 -16.723  19.289  0.00  0.00    -0.089 HD
ATOM     27  HZ3 LYS A   1     -40.501 -17.395  18.347  0.00  0.00    -0.089 HD
ENDBRANCH  23  24
ENDBRANCH  22  23
ENDBRANCH  21  22
ENDBRANCH  20  21
ENDBRANCH  17  20
ENDBRANCH  10  17
ENDBRANCH   6  16
ENDBRANCH   5   8
ENDBRANCH   1   5
BRANCH   2  28
ATOM     28  CA  VAL A   4     -36.469 -17.093   7.593  0.00  0.00    +0.149 C 
BRANCH  28  29
ATOM     29  C   VAL A   4     -35.653 -16.705   6.378  0.00  0.00    +0.241 C 
ATOM     30  O   VAL A   4     -34.430 -16.576   6.448  0.00  0.00    -0.273 OA
ATOM     31  N   TYR A   5     -36.363 -16.565   5.259  0.00  0.00    -0.298 N 
ATOM     32  H   TYR A   5     -37.400 -16.549   5.342  0.00  0.00    +0.150 HD
BRANCH  31  33
ATOM     33  CA  TYR A   5     -35.787 -16.432   3.925  0.00  0.00    +0.141 C 
BRANCH  33  34
ATOM     34  C   TYR A   5     -36.387 -15.239   3.206  0.00  0.00    +0.227 C 
ATOM     35  O   TYR A   5     -37.573 -14.986   3.327  0.00  0.00    -0.286 OA
ENDBRANCH  33  34
BRANCH  33  36
ATOM     36  CB  TYR A   5     -36.082 -17.719   3.120  0.00  0.00    +0.054 C 
BRANCH  36  37
ATOM     37  CG  TYR A   5     -35.469 -18.946   3.780  0.00  0.00    -0.020 A 
ATOM     38  CD2 TYR A   5     -36.127 -19.614   4.831  0.00  0.00    -0.001 A 
ATOM     39  CE2 TYR A   5     -35.541 -20.705   5.462  0.00  0.00    +0.036 A 
ATOM     40  CZ  TYR A   5     -34.292 -21.140   5.052  0.00  0.00    +0.134 A 
ATOM     41  CE1 TYR A   5     -33.637 -20.517   4.008  0.00  0.00    +0.036 A 
ATOM     42  CD1 TYR A   5     -34.223 -19.426   3.379  0.00  0.00    -0.001 A 
BRANCH  40  43
ATOM     43  OH  TYR A   5     -33.690 -22.230   5.669  0.00  0.00    -0.506 OA
ATOM     44  HH  TYR A   5     -34.277 -22.564   6.392  0.00  0.00    +0.292 HD
ENDBRANCH  40  43
ENDBRANCH  36  37
ENDBRANCH  33  36
ENDBRANCH  31  33
ENDBRANCH  28  29
BRANCH  28  45
ATOM     45  CB  VAL A   4     -36.841 -15.871   8.455  0.00  0.00    +0.027 C 
ATOM     46  CG2 VAL A   4     -37.467 -16.333   9.773  0.00  0.00    +0.002 C 
ATOM     47  CG1 VAL A   4     -37.820 -14.975   7.692  0.00  0.00    +0.002 C 
ENDBRANCH  28  45
ENDBRANCH   2  28
TORSDOF 18
REMARK  Name = ../refined-set-2016/3mhw/3mhw_pocket.pdb
REMARK  141 active torsions:
REMARK  status: ('A' for Active; 'I' for Inactive)
REMARK    1  A    between atoms: _1  and  _5
REMARK    2  A    between atoms: _5  and  _6
REMARK    3  A    between atoms: _5  and  _8
REMARK    4  A    between atoms: _8  and  _9
REMARK    5  A    between atoms: _12  and  _14
REMARK    6  A    between atoms: _14  and  _15
REMARK    7  A    between atoms: _14  and  _17
REMARK    8  A    between atoms: _17  and  _18
REMARK    9  A    between atoms: _21  and  _23
REMARK   10  A    between atoms: _23  and  _24
REMARK   11  A    between atoms: _23  and  _26
REMARK   12  A    between atoms: _28  and  _30
REMARK   13  A    between atoms: _30  and  _31
REMARK   14  A    between atoms: _30  and  _33
REMARK   15  A    between atoms: _33  and  _34
REMARK   16  A    between atoms: _39  and  _41
REMARK   17  A    between atoms: _41  and  _42
REMARK   18  A    between atoms: _41  and  _44
REMARK   19  A    between atoms: _44  and  _45
REMARK   20  A    between atoms: _50  and  _52
REMARK   21  A    between atoms: _52  and  _53
REMARK   22  A    between atoms: _52  and  _55
REMARK   23  A    between atoms: _55  and  _56
REMARK   24  A    between atoms: _59  and  _61
REMARK   25  A    between atoms: _61  and  _62
REMARK   26  A    between atoms: _61  and  _64
REMARK   27  A    between atoms: _64  and  _65
REMARK   28  A    between atoms: _68  and  _70
REMARK   29  A    between atoms: _70  and  _71
REMARK   30  A    between atoms: _70  and  _73
REMARK   31  A    between atoms: _73  and  _74
REMARK   32  A    between atoms: _74  and  _75
REMARK   33  A    between atoms: _75  and  _76
REMARK   34  A    between atoms: _76  and  _77
REMARK   35  A    between atoms: _81  and  _83
REMARK   36  A    between atoms: _83  and  _84
REMARK   37  A    between atoms: _83  and  _86
REMARK   38  A    between atoms: _86  and  _87
REMARK   39  A    between atoms: _89  and  _91
REMARK   40  A    between atoms: _91  and  _92
REMARK   41  A    between atoms: _91  and  _94
REMARK   42  A    between atoms: _94  and  _95
REMARK   43  A    between atoms: _100  and  _101
REMARK   44  A    between atoms: _103  and  _105
REMARK   45  A    between atoms: _105  and  _106
REMARK   46  A    between atoms: _105  and  _108
REMARK   47  A    between atoms: _108  and  _109
REMARK   48  A    between atoms: _114  and  _115
REMARK   49  A    between atoms: _117  and  _119
REMARK   50  A    between atoms: _119  and  _120
REMARK   51  A    between atoms: _123  and  _125
REMARK   52  A    between atoms: _125  and  _126
REMARK   53  A    between atoms: _129  and  _131
REMARK   54  A    between atoms: _131  and  _132
REMARK   55  A    between atoms: _131  and  _134
REMARK   56  A    between atoms: _134  and  _135
REMARK   57  A    between atoms: _138  and  _140
REMARK   58  A    between atoms: _140  and  _141
REMARK   59  A    between atoms: _140  and  _143
REMARK   60  A    between atoms: _143  and  _144
REMARK   61  A    between atoms: _147  and  _149
REMARK   62  A    between atoms: _149  and  _150
REMARK   63  A    between atoms: _149  and  _152
REMARK   64  A    between atoms: _152  and  _153
REMARK   65  A    between atoms: _155  and  _157
REMARK   66  A    between atoms: _157  and  _158
REMARK   67  A    between atoms: _157  and  _160
REMARK   68  A    between atoms: _160  and  _161
REMARK   69  A    between atoms: _161  and  _280
REMARK   70  A    between atoms: _162  and  _164
REMARK   71  A    between atoms: _164  and  _165
REMARK   72  A    between atoms: _164  and  _167
REMARK   73  A    between atoms: _167  and  _168
REMARK   74  A    between atoms: _168  and  _169
REMARK   75  A    between atoms: _174  and  _176
REMARK   76  A    between atoms: _176  and  _177
REMARK   77  A    between atoms: _179  and  _181
REMARK   78  A    between atoms: _181  and  _182
REMARK   79  A    between atoms: _181  and  _184
REMARK   80  A    between atoms: _184  and  _185
REMARK   81  A    between atoms: _188  and  _190
REMARK   82  A    between atoms: _190  and  _191
REMARK   83  A    between atoms: _190  and  _193
REMARK   84  A    between atoms: _193  and  _194
REMARK   85  A    between atoms: _196  and  _198
REMARK   86  A    between atoms: _198  and  _199
REMARK   87  A    between atoms: _201  and  _203
REMARK   88  A    between atoms: _203  and  _204
REMARK   89  A    between atoms: _206  and  _208
REMARK   90  A    between atoms: _208  and  _209
REMARK   91  A    between atoms: _208  and  _211
REMARK   92  A    between atoms: _211  and  _212
REMARK   93  A    between atoms: _215  and  _217
REMARK   94  A    between atoms: _217  and  _218
REMARK   95  A    between atoms: _217  and  _220
REMARK   96  A    between atoms: _223  and  _225
REMARK   97  A    between atoms: _225  and  _226
REMARK   98  A    between atoms: _225  and  _228
REMARK   99  A    between atoms: _228  and  _229
REMARK  100  A    between atoms: _231  and  _233
REMARK  101  A    between atoms: _233  and  _234
REMARK  102  A    between atoms: _233  and  _236
REMARK  103  A    between atoms: _236  and  _237
REMARK  104  A    between atoms: _247  and  _249
REMARK  105  A    between atoms: _249  and  _250
REMARK  106  A    between atoms: _252  and  _254
REMARK  107  A    between atoms: _254  and  _255
REMARK  108  A    between atoms: _254  and  _257
REMARK  109  A    between atoms: _257  and  _258
REMARK  110  A    between atoms: _258  and  _259
REMARK  111  A    between atoms: _259  and  _260
REMARK  112  A    between atoms: _269  and  _271
REMARK  113  A    between atoms: _271  and  _272
REMARK  114  A    between atoms: _274  and  _276
REMARK  115  A    between atoms: _276  and  _277
REMARK  116  A    between atoms: _276  and  _279
REMARK  117  A    between atoms: _279  and  _280
REMARK  118  A    between atoms: _281  and  _283
REMARK  119  A    between atoms: _283  and  _284
REMARK  120  A    between atoms: _287  and  _289
REMARK  121  A    between atoms: _289  and  _290
REMARK  122  A    between atoms: _289  and  _292
REMARK  123  A    between atoms: _292  and  _293
REMARK  124  A    between atoms: _296  and  _298
REMARK  125  A    between atoms: _298  and  _299
REMARK  126  A    between atoms: _298  and  _301
REMARK  127  A    between atoms: _301  and  _302
REMARK  128  A    between atoms: _302  and  _303
REMARK  129  A    between atoms: _303  and  _304
REMARK  130  A    between atoms: _304  and  _305
REMARK  131  A    between atoms: _310  and  _311
REMARK  132  A    between atoms: _316  and  _318
REMARK  133  A    between atoms: _318  and  _319
REMARK  134  A    between atoms: _321  and  _323
REMARK  135  A    between atoms: _323  and  _324
REMARK  136  A    between atoms: _323  and  _326
REMARK  137  A    between atoms: _329  and  _331
REMARK  138  A    between atoms: _331  and  _332
REMARK  139  A    between atoms: _331  and  _334
REMARK  140  A    between atoms: _334  and  _335
REMARK  141  A    between atoms: _340  and  _341
REMARK                            x       y       z     vdW  Elec       q    Type
REMARK                         _______ _______ _______ _____ _____    ______ ____
ROOT
ATOM      1  O   HOH     1     -34.956 -23.458   7.640  0.00  0.00    +0.000 OA
ENDROOT
TORSDOF 0
REMARK  Name = ../refined-set-2016/3mhw/3mhw_pocket.pdb
REMARK  141 active torsions:
REMARK  status: ('A' for Active; 'I' for Inactive)
REMARK    1  A    between atoms: _1  and  _5
REMARK    2  A    between atoms: _5  and  _6
REMARK    3  A    between atoms: _5  and  _8
REMARK    4  A    between atoms: _8  and  _9
REMARK    5  A    between atoms: _12  and  _14
REMARK    6  A    between atoms: _14  and  _15
REMARK    7  A    between atoms: _14  and  _17
REMARK    8  A    between atoms: _17  and  _18
REMARK    9  A    between atoms: _21  and  _23
REMARK   10  A    between atoms: _23  and  _24
REMARK   11  A    between atoms: _23  and  _26
REMARK   12  A    between atoms: _28  and  _30
REMARK   13  A    between atoms: _30  and  _31
REMARK   14  A    between atoms: _30  and  _33
REMARK   15  A    between atoms: _33  and  _34
REMARK   16  A    between atoms: _39  and  _41
REMARK   17  A    between atoms: _41  and  _42
REMARK   18  A    between atoms: _41  and  _44
REMARK   19  A    between atoms: _44  and  _45
REMARK   20  A    between atoms: _50  and  _52
REMARK   21  A    between atoms: _52  and  _53
REMARK   22  A    between atoms: _52  and  _55
REMARK   23  A    between atoms: _55  and  _56
REMARK   24  A    between atoms: _59  and  _61
REMARK   25  A    between atoms: _61  and  _62
REMARK   26  A    between atoms: _61  and  _64
REMARK   27  A    between atoms: _64  and  _65
REMARK   28  A    between atoms: _68  and  _70
REMARK   29  A    between atoms: _70  and  _71
REMARK   30  A    between atoms: _70  and  _73
REMARK   31  A    between atoms: _73  and  _74
REMARK   32  A    between atoms: _74  and  _75
REMARK   33  A    between atoms: _75  and  _76
REMARK   34  A    between atoms: _76  and  _77
REMARK   35  A    between atoms: _81  and  _83
REMARK   36  A    between atoms: _83  and  _84
REMARK   37  A    between atoms: _83  and  _86
REMARK   38  A    between atoms: _86  and  _87
REMARK   39  A    between atoms: _89  and  _91
REMARK   40  A    between atoms: _91  and  _92
REMARK   41  A    between atoms: _91  and  _94
REMARK   42  A    between atoms: _94  and  _95
REMARK   43  A    between atoms: _100  and  _101
REMARK   44  A    between atoms: _103  and  _105
REMARK   45  A    between atoms: _105  and  _106
REMARK   46  A    between atoms: _105  and  _108
REMARK   47  A    between atoms: _108  and  _109
REMARK   48  A    between atoms: _114  and  _115
REMARK   49  A    between atoms: _117  and  _119
REMARK   50  A    between atoms: _119  and  _120
REMARK   51  A    between atoms: _123  and  _125
REMARK   52  A    between atoms: _125  and  _126
REMARK   53  A    between atoms: _129  and  _131
REMARK   54  A    between atoms: _131  and  _132
REMARK   55  A    between atoms: _131  and  _134
REMARK   56  A    between atoms: _134  and  _135
REMARK   57  A    between atoms: _138  and  _140
REMARK   58  A    between atoms: _140  and  _141
REMARK   59  A    between atoms: _140  and  _143
REMARK   60  A    between atoms: _143  and  _144
REMARK   61  A    between atoms: _147  and  _149
REMARK   62  A    between atoms: _149  and  _150
REMARK   63  A    between atoms: _149  and  _152
REMARK   64  A    between atoms: _152  and  _153
REMARK   65  A    between atoms: _155  and  _157
REMARK   66  A    between atoms: _157  and  _158
REMARK   67  A    between atoms: _157  and  _160
REMARK   68  A    between atoms: _160  and  _161
REMARK   69  A    between atoms: _161  and  _280
REMARK   70  A    between atoms: _162  and  _164
REMARK   71  A    between atoms: _164  and  _165
REMARK   72  A    between atoms: _164  and  _167
REMARK   73  A    between atoms: _167  and  _168
REMARK   74  A    between atoms: _168  and  _169
REMARK   75  A    between atoms: _174  and  _176
REMARK   76  A    between atoms: _176  and  _177
REMARK   77  A    between atoms: _179  and  _181
REMARK   78  A    between atoms: _181  and  _182
REMARK   79  A    between atoms: _181  and  _184
REMARK   80  A    between atoms: _184  and  _185
REMARK   81  A    between atoms: _188  and  _190
REMARK   82  A    between atoms: _190  and  _191
REMARK   83  A    between atoms: _190  and  _193
REMARK   84  A    between atoms: _193  and  _194
REMARK   85  A    between atoms: _196  and  _198
REMARK   86  A    between atoms: _198  and  _199
REMARK   87  A    between atoms: _201  and  _203
REMARK   88  A    between atoms: _203  and  _204
REMARK   89  A    between atoms: _206  and  _208
REMARK   90  A    between atoms: _208  and  _209
REMARK   91  A    between atoms: _208  and  _211
REMARK   92  A    between atoms: _211  and  _212
REMARK   93  A    between atoms: _215  and  _217
REMARK   94  A    between atoms: _217  and  _218
REMARK   95  A    between atoms: _217  and  _220
REMARK   96  A    between atoms: _223  and  _225
REMARK   97  A    between atoms: _225  and  _226
REMARK   98  A    between atoms: _225  and  _228
REMARK   99  A    between atoms: _228  and  _229
REMARK  100  A    between atoms: _231  and  _233
REMARK  101  A    between atoms: _233  and  _234
REMARK  102  A    between atoms: _233  and  _236
REMARK  103  A    between atoms: _236  and  _237
REMARK  104  A    between atoms: _247  and  _249
REMARK  105  A    between atoms: _249  and  _250
REMARK  106  A    between atoms: _252  and  _254
REMARK  107  A    between atoms: _254  and  _255
REMARK  108  A    between atoms: _254  and  _257
REMARK  109  A    between atoms: _257  and  _258
REMARK  110  A    between atoms: _258  and  _259
REMARK  111  A    between atoms: _259  and  _260
REMARK  112  A    between atoms: _269  and  _271
REMARK  113  A    between atoms: _271  and  _272
REMARK  114  A    between atoms: _274  and  _276
REMARK  115  A    between atoms: _276  and  _277
REMARK  116  A    between atoms: _276  and  _279
REMARK  117  A    between atoms: _279  and  _280
REMARK  118  A    between atoms: _281  and  _283
REMARK  119  A    between atoms: _283  and  _284
REMARK  120  A    between atoms: _287  and  _289
REMARK  121  A    between atoms: _289  and  _290
REMARK  122  A    between atoms: _289  and  _292
REMARK  123  A    between atoms: _292  and  _293
REMARK  124  A    between atoms: _296  and  _298
REMARK  125  A    between atoms: _298  and  _299
REMARK  126  A    between atoms: _298  and  _301
REMARK  127  A    between atoms: _301  and  _302
REMARK  128  A    between atoms: _302  and  _303
REMARK  129  A    between atoms: _303  and  _304
REMARK  130  A    between atoms: _304  and  _305
REMARK  131  A    between atoms: _310  and  _311
REMARK  132  A    between atoms: _316  and  _318
REMARK  133  A    between atoms: _318  and  _319
REMARK  134  A    between atoms: _321  and  _323
REMARK  135  A    between atoms: _323  and  _324
REMARK  136  A    between atoms: _323  and  _326
REMARK  137  A    between atoms: _329  and  _331
REMARK  138  A    between atoms: _331  and  _332
REMARK  139  A    between atoms: _331  and  _334
REMARK  140  A    between atoms: _334  and  _335
REMARK  141  A    between atoms: _340  and  _341
REMARK                            x       y       z     vdW  Elec       q    Type
REMARK                         _______ _______ _______ _____ _____    ______ ____
ROOT
ATOM      1  O   HOH     1     -36.136 -26.792  11.726  0.00  0.00    +0.000 OA
ENDROOT
TORSDOF 0
REMARK  Name = ../refined-set-2016/3mhw/3mhw_pocket.pdb
REMARK  141 active torsions:
REMARK  status: ('A' for Active; 'I' for Inactive)
REMARK    1  A    between atoms: _1  and  _5
REMARK    2  A    between atoms: _5  and  _6
REMARK    3  A    between atoms: _5  and  _8
REMARK    4  A    between atoms: _8  and  _9
REMARK    5  A    between atoms: _12  and  _14
REMARK    6  A    between atoms: _14  and  _15
REMARK    7  A    between atoms: _14  and  _17
REMARK    8  A    between atoms: _17  and  _18
REMARK    9  A    between atoms: _21  and  _23
REMARK   10  A    between atoms: _23  and  _24
REMARK   11  A    between atoms: _23  and  _26
REMARK   12  A    between atoms: _28  and  _30
REMARK   13  A    between atoms: _30  and  _31
REMARK   14  A    between atoms: _30  and  _33
REMARK   15  A    between atoms: _33  and  _34
REMARK   16  A    between atoms: _39  and  _41
REMARK   17  A    between atoms: _41  and  _42
REMARK   18  A    between atoms: _41  and  _44
REMARK   19  A    between atoms: _44  and  _45
REMARK   20  A    between atoms: _50  and  _52
REMARK   21  A    between atoms: _52  and  _53
REMARK   22  A    between atoms: _52  and  _55
REMARK   23  A    between atoms: _55  and  _56
REMARK   24  A    between atoms: _59  and  _61
REMARK   25  A    between atoms: _61  and  _62
REMARK   26  A    between atoms: _61  and  _64
REMARK   27  A    between atoms: _64  and  _65
REMARK   28  A    between atoms: _68  and  _70
REMARK   29  A    between atoms: _70  and  _71
REMARK   30  A    between atoms: _70  and  _73
REMARK   31  A    between atoms: _73  and  _74
REMARK   32  A    between atoms: _74  and  _75
REMARK   33  A    between atoms: _75  and  _76
REMARK   34  A    between atoms: _76  and  _77
REMARK   35  A    between atoms: _81  and  _83
REMARK   36  A    between atoms: _83  and  _84
REMARK   37  A    between atoms: _83  and  _86
REMARK   38  A    between atoms: _86  and  _87
REMARK   39  A    between atoms: _89  and  _91
REMARK   40  A    between atoms: _91  and  _92
REMARK   41  A    between atoms: _91  and  _94
REMARK   42  A    between atoms: _94  and  _95
REMARK   43  A    between atoms: _100  and  _101
REMARK   44  A    between atoms: _103  and  _105
REMARK   45  A    between atoms: _105  and  _106
REMARK   46  A    between atoms: _105  and  _108
REMARK   47  A    between atoms: _108  and  _109
REMARK   48  A    between atoms: _114  and  _115
REMARK   49  A    between atoms: _117  and  _119
REMARK   50  A    between atoms: _119  and  _120
REMARK   51  A    between atoms: _123  and  _125
REMARK   52  A    between atoms: _125  and  _126
REMARK   53  A    between atoms: _129  and  _131
REMARK   54  A    between atoms: _131  and  _132
REMARK   55  A    between atoms: _131  and  _134
REMARK   56  A    between atoms: _134  and  _135
REMARK   57  A    between atoms: _138  and  _140
REMARK   58  A    between atoms: _140  and  _141
REMARK   59  A    between atoms: _140  and  _143
REMARK   60  A    between atoms: _143  and  _144
REMARK   61  A    between atoms: _147  and  _149
REMARK   62  A    between atoms: _149  and  _150
REMARK   63  A    between atoms: _149  and  _152
REMARK   64  A    between atoms: _152  and  _153
REMARK   65  A    between atoms: _155  and  _157
REMARK   66  A    between atoms: _157  and  _158
REMARK   67  A    between atoms: _157  and  _160
REMARK   68  A    between atoms: _160  and  _161
REMARK   69  A    between atoms: _161  and  _280
REMARK   70  A    between atoms: _162  and  _164
REMARK   71  A    between atoms: _164  and  _165
REMARK   72  A    between atoms: _164  and  _167
REMARK   73  A    between atoms: _167  and  _168
REMARK   74  A    between atoms: _168  and  _169
REMARK   75  A    between atoms: _174  and  _176
REMARK   76  A    between atoms: _176  and  _177
REMARK   77  A    between atoms: _179  and  _181
REMARK   78  A    between atoms: _181  and  _182
REMARK   79  A    between atoms: _181  and  _184
REMARK   80  A    between atoms: _184  and  _185
REMARK   81  A    between atoms: _188  and  _190
REMARK   82  A    between atoms: _190  and  _191
REMARK   83  A    between atoms: _190  and  _193
REMARK   84  A    between atoms: _193  and  _194
REMARK   85  A    between atoms: _196  and  _198
REMARK   86  A    between atoms: _198  and  _199
REMARK   87  A    between atoms: _201  and  _203
REMARK   88  A    between atoms: _203  and  _204
REMARK   89  A    between atoms: _206  and  _208
REMARK   90  A    between atoms: _208  and  _209
REMARK   91  A    between atoms: _208  and  _211
REMARK   92  A    between atoms: _211  and  _212
REMARK   93  A    between atoms: _215  and  _217
REMARK   94  A    between atoms: _217  and  _218
REMARK   95  A    between atoms: _217  and  _220
REMARK   96  A    between atoms: _223  and  _225
REMARK   97  A    between atoms: _225  and  _226
REMARK   98  A    between atoms: _225  and  _228
REMARK   99  A    between atoms: _228  and  _229
REMARK  100  A    between atoms: _231  and  _233
REMARK  101  A    between atoms: _233  and  _234
REMARK  102  A    between atoms: _233  and  _236
REMARK  103  A    between atoms: _236  and  _237
REMARK  104  A    between atoms: _247  and  _249
REMARK  105  A    between atoms: _249  and  _250
REMARK  106  A    between atoms: _252  and  _254
REMARK  107  A    between atoms: _254  and  _255
REMARK  108  A    between atoms: _254  and  _257
REMARK  109  A    between atoms: _257  and  _258
REMARK  110  A    between atoms: _258  and  _259
REMARK  111  A    between atoms: _259  and  _260
REMARK  112  A    between atoms: _269  and  _271
REMARK  113  A    between atoms: _271  and  _272
REMARK  114  A    between atoms: _274  and  _276
REMARK  115  A    between atoms: _276  and  _277
REMARK  116  A    between atoms: _276  and  _279
REMARK  117  A    between atoms: _279  and  _280
REMARK  118  A    between atoms: _281  and  _283
REMARK  119  A    between atoms: _283  and  _284
REMARK  120  A    between atoms: _287  and  _289
REMARK  121  A    between atoms: _289  and  _290
REMARK  122  A    between atoms: _289  and  _292
REMARK  123  A    between atoms: _292  and  _293
REMARK  124  A    between atoms: _296  and  _298
REMARK  125  A    between atoms: _298  and  _299
REMARK  126  A    between atoms: _298  and  _301
REMARK  127  A    between atoms: _301  and  _302
REMARK  128  A    between atoms: _302  and  _303
REMARK  129  A    between atoms: _303  and  _304
REMARK  130  A    between atoms: _304  and  _305
REMARK  131  A    between atoms: _310  and  _311
REMARK  132  A    between atoms: _316  and  _318
REMARK  133  A    between atoms: _318  and  _319
REMARK  134  A    between atoms: _321  and  _323
REMARK  135  A    between atoms: _323  and  _324
REMARK  136  A    between atoms: _323  and  _326
REMARK  137  A    between atoms: _329  and  _331
REMARK  138  A    between atoms: _331  and  _332
REMARK  139  A    between atoms: _331  and  _334
REMARK  140  A    between atoms: _334  and  _335
REMARK  141  A    between atoms: _340  and  _341
REMARK                            x       y       z     vdW  Elec       q    Type
REMARK                         _______ _______ _______ _____ _____    ______ ____
ROOT
ATOM      1  O   HOH     1     -35.741 -24.426  13.361  0.00  0.00    +0.000 OA
ENDROOT
TORSDOF 0
REMARK  Name = ../refined-set-2016/3mhw/3mhw_pocket.pdb
REMARK  141 active torsions:
REMARK  status: ('A' for Active; 'I' for Inactive)
REMARK    1  A    between atoms: _1  and  _5
REMARK    2  A    between atoms: _5  and  _6
REMARK    3  A    between atoms: _5  and  _8
REMARK    4  A    between atoms: _8  and  _9
REMARK    5  A    between atoms: _12  and  _14
REMARK    6  A    between atoms: _14  and  _15
REMARK    7  A    between atoms: _14  and  _17
REMARK    8  A    between atoms: _17  and  _18
REMARK    9  A    between atoms: _21  and  _23
REMARK   10  A    between atoms: _23  and  _24
REMARK   11  A    between atoms: _23  and  _26
REMARK   12  A    between atoms: _28  and  _30
REMARK   13  A    between atoms: _30  and  _31
REMARK   14  A    between atoms: _30  and  _33
REMARK   15  A    between atoms: _33  and  _34
REMARK   16  A    between atoms: _39  and  _41
REMARK   17  A    between atoms: _41  and  _42
REMARK   18  A    between atoms: _41  and  _44
REMARK   19  A    between atoms: _44  and  _45
REMARK   20  A    between atoms: _50  and  _52
REMARK   21  A    between atoms: _52  and  _53
REMARK   22  A    between atoms: _52  and  _55
REMARK   23  A    between atoms: _55  and  _56
REMARK   24  A    between atoms: _59  and  _61
REMARK   25  A    between atoms: _61  and  _62
REMARK   26  A    between atoms: _61  and  _64
REMARK   27  A    between atoms: _64  and  _65
REMARK   28  A    between atoms: _68  and  _70
REMARK   29  A    between atoms: _70  and  _71
REMARK   30  A    between atoms: _70  and  _73
REMARK   31  A    between atoms: _73  and  _74
REMARK   32  A    between atoms: _74  and  _75
REMARK   33  A    between atoms: _75  and  _76
REMARK   34  A    between atoms: _76  and  _77
REMARK   35  A    between atoms: _81  and  _83
REMARK   36  A    between atoms: _83  and  _84
REMARK   37  A    between atoms: _83  and  _86
REMARK   38  A    between atoms: _86  and  _87
REMARK   39  A    between atoms: _89  and  _91
REMARK   40  A    between atoms: _91  and  _92
REMARK   41  A    between atoms: _91  and  _94
REMARK   42  A    between atoms: _94  and  _95
REMARK   43  A    between atoms: _100  and  _101
REMARK   44  A    between atoms: _103  and  _105
REMARK   45  A    between atoms: _105  and  _106
REMARK   46  A    between atoms: _105  and  _108
REMARK   47  A    between atoms: _108  and  _109
REMARK   48  A    between atoms: _114  and  _115
REMARK   49  A    between atoms: _117  and  _119
REMARK   50  A    between atoms: _119  and  _120
REMARK   51  A    between atoms: _123  and  _125
REMARK   52  A    between atoms: _125  and  _126
REMARK   53  A    between atoms: _129  and  _131
REMARK   54  A    between atoms: _131  and  _132
REMARK   55  A    between atoms: _131  and  _134
REMARK   56  A    between atoms: _134  and  _135
REMARK   57  A    between atoms: _138  and  _140
REMARK   58  A    between atoms: _140  and  _141
REMARK   59  A    between atoms: _140  and  _143
REMARK   60  A    between atoms: _143  and  _144
REMARK   61  A    between atoms: _147  and  _149
REMARK   62  A    between atoms: _149  and  _150
REMARK   63  A    between atoms: _149  and  _152
REMARK   64  A    between atoms: _152  and  _153
REMARK   65  A    between atoms: _155  and  _157
REMARK   66  A    between atoms: _157  and  _158
REMARK   67  A    between atoms: _157  and  _160
REMARK   68  A    between atoms: _160  and  _161
REMARK   69  A    between atoms: _161  and  _280
REMARK   70  A    between atoms: _162  and  _164
REMARK   71  A    between atoms: _164  and  _165
REMARK   72  A    between atoms: _164  and  _167
REMARK   73  A    between atoms: _167  and  _168
REMARK   74  A    between atoms: _168  and  _169
REMARK   75  A    between atoms: _174  and  _176
REMARK   76  A    between atoms: _176  and  _177
REMARK   77  A    between atoms: _179  and  _181
REMARK   78  A    between atoms: _181  and  _182
REMARK   79  A    between atoms: _181  and  _184
REMARK   80  A    between atoms: _184  and  _185
REMARK   81  A    between atoms: _188  and  _190
REMARK   82  A    between atoms: _190  and  _191
REMARK   83  A    between atoms: _190  and  _193
REMARK   84  A    between atoms: _193  and  _194
REMARK   85  A    between atoms: _196  and  _198
REMARK   86  A    between atoms: _198  and  _199
REMARK   87  A    between atoms: _201  and  _203
REMARK   88  A    between atoms: _203  and  _204
REMARK   89  A    between atoms: _206  and  _208
REMARK   90  A    between atoms: _208  and  _209
REMARK   91  A    between atoms: _208  and  _211
REMARK   92  A    between atoms: _211  and  _212
REMARK   93  A    between atoms: _215  and  _217
REMARK   94  A    between atoms: _217  and  _218
REMARK   95  A    between atoms: _217  and  _220
REMARK   96  A    between atoms: _223  and  _225
REMARK   97  A    between atoms: _225  and  _226
REMARK   98  A    between atoms: _225  and  _228
REMARK   99  A    between atoms: _228  and  _229
REMARK  100  A    between atoms: _231  and  _233
REMARK  101  A    between atoms: _233  and  _234
REMARK  102  A    between atoms: _233  and  _236
REMARK  103  A    between atoms: _236  and  _237
REMARK  104  A    between atoms: _247  and  _249
REMARK  105  A    between atoms: _249  and  _250
REMARK  106  A    between atoms: _252  and  _254
REMARK  107  A    between atoms: _254  and  _255
REMARK  108  A    between atoms: _254  and  _257
REMARK  109  A    between atoms: _257  and  _258
REMARK  110  A    between atoms: _258  and  _259
REMARK  111  A    between atoms: _259  and  _260
REMARK  112  A    between atoms: _269  and  _271
REMARK  113  A    between atoms: _271  and  _272
REMARK  114  A    between atoms: _274  and  _276
REMARK  115  A    between atoms: _276  and  _277
REMARK  116  A    between atoms: _276  and  _279
REMARK  117  A    between atoms: _279  and  _280
REMARK  118  A    between atoms: _281  and  _283
REMARK  119  A    between atoms: _283  and  _284
REMARK  120  A    between atoms: _287  and  _289
REMARK  121  A    between atoms: _289  and  _290
REMARK  122  A    between atoms: _289  and  _292
REMARK  123  A    between atoms: _292  and  _293
REMARK  124  A    between atoms: _296  and  _298
REMARK  125  A    between atoms: _298  and  _299
REMARK  126  A    between atoms: _298  and  _301
REMARK  127  A    between atoms: _301  and  _302
REMARK  128  A    between atoms: _302  and  _303
REMARK  129  A    between atoms: _303  and  _304
REMARK  130  A    between atoms: _304  and  _305
REMARK  131  A    between atoms: _310  and  _311
REMARK  132  A    between atoms: _316  and  _318
REMARK  133  A    between atoms: _318  and  _319
REMARK  134  A    between atoms: _321  and  _323
REMARK  135  A    between atoms: _323  and  _324
REMARK  136  A    between atoms: _323  and  _326
REMARK  137  A    between atoms: _329  and  _331
REMARK  138  A    between atoms: _331  and  _332
REMARK  139  A    between atoms: _331  and  _334
REMARK  140  A    between atoms: _334  and  _335
REMARK  141  A    between atoms: _340  and  _341
REMARK                            x       y       z     vdW  Elec       q    Type
REMARK                         _______ _______ _______ _____ _____    ______ ____
ROOT
ATOM      1  O   HOH     1     -29.436 -22.575  18.407  0.00  0.00    +0.000 OA
ENDROOT
TORSDOF 0
REMARK  Name = ../refined-set-2016/3mhw/3mhw_pocket.pdb
REMARK  141 active torsions:
REMARK  status: ('A' for Active; 'I' for Inactive)
REMARK    1  A    between atoms: _1  and  _5
REMARK    2  A    between atoms: _5  and  _6
REMARK    3  A    between atoms: _5  and  _8
REMARK    4  A    between atoms: _8  and  _9
REMARK    5  A    between atoms: _12  and  _14
REMARK    6  A    between atoms: _14  and  _15
REMARK    7  A    between atoms: _14  and  _17
REMARK    8  A    between atoms: _17  and  _18
REMARK    9  A    between atoms: _21  and  _23
REMARK   10  A    between atoms: _23  and  _24
REMARK   11  A    between atoms: _23  and  _26
REMARK   12  A    between atoms: _28  and  _30
REMARK   13  A    between atoms: _30  and  _31
REMARK   14  A    between atoms: _30  and  _33
REMARK   15  A    between atoms: _33  and  _34
REMARK   16  A    between atoms: _39  and  _41
REMARK   17  A    between atoms: _41  and  _42
REMARK   18  A    between atoms: _41  and  _44
REMARK   19  A    between atoms: _44  and  _45
REMARK   20  A    between atoms: _50  and  _52
REMARK   21  A    between atoms: _52  and  _53
REMARK   22  A    between atoms: _52  and  _55
REMARK   23  A    between atoms: _55  and  _56
REMARK   24  A    between atoms: _59  and  _61
REMARK   25  A    between atoms: _61  and  _62
REMARK   26  A    between atoms: _61  and  _64
REMARK   27  A    between atoms: _64  and  _65
REMARK   28  A    between atoms: _68  and  _70
REMARK   29  A    between atoms: _70  and  _71
REMARK   30  A    between atoms: _70  and  _73
REMARK   31  A    between atoms: _73  and  _74
REMARK   32  A    between atoms: _74  and  _75
REMARK   33  A    between atoms: _75  and  _76
REMARK   34  A    between atoms: _76  and  _77
REMARK   35  A    between atoms: _81  and  _83
REMARK   36  A    between atoms: _83  and  _84
REMARK   37  A    between atoms: _83  and  _86
REMARK   38  A    between atoms: _86  and  _87
REMARK   39  A    between atoms: _89  and  _91
REMARK   40  A    between atoms: _91  and  _92
REMARK   41  A    between atoms: _91  and  _94
REMARK   42  A    between atoms: _94  and  _95
REMARK   43  A    between atoms: _100  and  _101
REMARK   44  A    between atoms: _103  and  _105
REMARK   45  A    between atoms: _105  and  _106
REMARK   46  A    between atoms: _105  and  _108
REMARK   47  A    between atoms: _108  and  _109
REMARK   48  A    between atoms: _114  and  _115
REMARK   49  A    between atoms: _117  and  _119
REMARK   50  A    between atoms: _119  and  _120
REMARK   51  A    between atoms: _123  and  _125
REMARK   52  A    between atoms: _125  and  _126
REMARK   53  A    between atoms: _129  and  _131
REMARK   54  A    between atoms: _131  and  _132
REMARK   55  A    between atoms: _131  and  _134
REMARK   56  A    between atoms: _134  and  _135
REMARK   57  A    between atoms: _138  and  _140
REMARK   58  A    between atoms: _140  and  _141
REMARK   59  A    between atoms: _140  and  _143
REMARK   60  A    between atoms: _143  and  _144
REMARK   61  A    between atoms: _147  and  _149
REMARK   62  A    between atoms: _149  and  _150
REMARK   63  A    between atoms: _149  and  _152
REMARK   64  A    between atoms: _152  and  _153
REMARK   65  A    between atoms: _155  and  _157
REMARK   66  A    between atoms: _157  and  _158
REMARK   67  A    between atoms: _157  and  _160
REMARK   68  A    between atoms: _160  and  _161
REMARK   69  A    between atoms: _161  and  _280
REMARK   70  A    between atoms: _162  and  _164
REMARK   71  A    between atoms: _164  and  _165
REMARK   72  A    between atoms: _164  and  _167
REMARK   73  A    between atoms: _167  and  _168
REMARK   74  A    between atoms: _168  and  _169
REMARK   75  A    between atoms: _174  and  _176
REMARK   76  A    between atoms: _176  and  _177
REMARK   77  A    between atoms: _179  and  _181
REMARK   78  A    between atoms: _181  and  _182
REMARK   79  A    between atoms: _181  and  _184
REMARK   80  A    between atoms: _184  and  _185
REMARK   81  A    between atoms: _188  and  _190
REMARK   82  A    between atoms: _190  and  _191
REMARK   83  A    between atoms: _190  and  _193
REMARK   84  A    between atoms: _193  and  _194
REMARK   85  A    between atoms: _196  and  _198
REMARK   86  A    between atoms: _198  and  _199
REMARK   87  A    between atoms: _201  and  _203
REMARK   88  A    between atoms: _203  and  _204
REMARK   89  A    between atoms: _206  and  _208
REMARK   90  A    between atoms: _208  and  _209
REMARK   91  A    between atoms: _208  and  _211
REMARK   92  A    between atoms: _211  and  _212
REMARK   93  A    between atoms: _215  and  _217
REMARK   94  A    between atoms: _217  and  _218
REMARK   95  A    between atoms: _217  and  _220
REMARK   96  A    between atoms: _223  and  _225
REMARK   97  A    between atoms: _225  and  _226
REMARK   98  A    between atoms: _225  and  _228
REMARK   99  A    between atoms: _228  and  _229
REMARK  100  A    between atoms: _231  and  _233
REMARK  101  A    between atoms: _233  and  _234
REMARK  102  A    between atoms: _233  and  _236
REMARK  103  A    between atoms: _236  and  _237
REMARK  104  A    between atoms: _247  and  _249
REMARK  105  A    between atoms: _249  and  _250
REMARK  106  A    between atoms: _252  and  _254
REMARK  107  A    between atoms: _254  and  _255
REMARK  108  A    between atoms: _254  and  _257
REMARK  109  A    between atoms: _257  and  _258
REMARK  110  A    between atoms: _258  and  _259
REMARK  111  A    between atoms: _259  and  _260
REMARK  112  A    between atoms: _269  and  _271
REMARK  113  A    between atoms: _271  and  _272
REMARK  114  A    between atoms: _274  and  _276
REMARK  115  A    between atoms: _276  and  _277
REMARK  116  A    between atoms: _276  and  _279
REMARK  117  A    between atoms: _279  and  _280
REMARK  118  A    between atoms: _281  and  _283
REMARK  119  A    between atoms: _283  and  _284
REMARK  120  A    between atoms: _287  and  _289
REMARK  121  A    between atoms: _289  and  _290
REMARK  122  A    between atoms: _289  and  _292
REMARK  123  A    between atoms: _292  and  _293
REMARK  124  A    between atoms: _296  and  _298
REMARK  125  A    between atoms: _298  and  _299
REMARK  126  A    between atoms: _298  and  _301
REMARK  127  A    between atoms: _301  and  _302
REMARK  128  A    between atoms: _302  and  _303
REMARK  129  A    between atoms: _303  and  _304
REMARK  130  A    between atoms: _304  and  _305
REMARK  131  A    between atoms: _310  and  _311
REMARK  132  A    between atoms: _316  and  _318
REMARK  133  A    between atoms: _318  and  _319
REMARK  134  A    between atoms: _321  and  _323
REMARK  135  A    between atoms: _323  and  _324
REMARK  136  A    between atoms: _323  and  _326
REMARK  137  A    between atoms: _329  and  _331
REMARK  138  A    between atoms: _331  and  _332
REMARK  139  A    between atoms: _331  and  _334
REMARK  140  A    between atoms: _334  and  _335
REMARK  141  A    between atoms: _340  and  _341
REMARK                            x       y       z     vdW  Elec       q    Type
REMARK                         _______ _______ _______ _____ _____    ______ ____
ROOT
ATOM      1  O   HOH     1     -24.650 -19.998  16.246  0.00  0.00    +0.000 OA
ENDROOT
TORSDOF 0
REMARK  Name = ../refined-set-2016/3mhw/3mhw_pocket.pdb
REMARK  141 active torsions:
REMARK  status: ('A' for Active; 'I' for Inactive)
REMARK    1  A    between atoms: _1  and  _5
REMARK    2  A    between atoms: _5  and  _6
REMARK    3  A    between atoms: _5  and  _8
REMARK    4  A    between atoms: _8  and  _9
REMARK    5  A    between atoms: _12  and  _14
REMARK    6  A    between atoms: _14  and  _15
REMARK    7  A    between atoms: _14  and  _17
REMARK    8  A    between atoms: _17  and  _18
REMARK    9  A    between atoms: _21  and  _23
REMARK   10  A    between atoms: _23  and  _24
REMARK   11  A    between atoms: _23  and  _26
REMARK   12  A    between atoms: _28  and  _30
REMARK   13  A    between atoms: _30  and  _31
REMARK   14  A    between atoms: _30  and  _33
REMARK   15  A    between atoms: _33  and  _34
REMARK   16  A    between atoms: _39  and  _41
REMARK   17  A    between atoms: _41  and  _42
REMARK   18  A    between atoms: _41  and  _44
REMARK   19  A    between atoms: _44  and  _45
REMARK   20  A    between atoms: _50  and  _52
REMARK   21  A    between atoms: _52  and  _53
REMARK   22  A    between atoms: _52  and  _55
REMARK   23  A    between atoms: _55  and  _56
REMARK   24  A    between atoms: _59  and  _61
REMARK   25  A    between atoms: _61  and  _62
REMARK   26  A    between atoms: _61  and  _64
REMARK   27  A    between atoms: _64  and  _65
REMARK   28  A    between atoms: _68  and  _70
REMARK   29  A    between atoms: _70  and  _71
REMARK   30  A    between atoms: _70  and  _73
REMARK   31  A    between atoms: _73  and  _74
REMARK   32  A    between atoms: _74  and  _75
REMARK   33  A    between atoms: _75  and  _76
REMARK   34  A    between atoms: _76  and  _77
REMARK   35  A    between atoms: _81  and  _83
REMARK   36  A    between atoms: _83  and  _84
REMARK   37  A    between atoms: _83  and  _86
REMARK   38  A    between atoms: _86  and  _87
REMARK   39  A    between atoms: _89  and  _91
REMARK   40  A    between atoms: _91  and  _92
REMARK   41  A    between atoms: _91  and  _94
REMARK   42  A    between atoms: _94  and  _95
REMARK   43  A    between atoms: _100  and  _101
REMARK   44  A    between atoms: _103  and  _105
REMARK   45  A    between atoms: _105  and  _106
REMARK   46  A    between atoms: _105  and  _108
REMARK   47  A    between atoms: _108  and  _109
REMARK   48  A    between atoms: _114  and  _115
REMARK   49  A    between atoms: _117  and  _119
REMARK   50  A    between atoms: _119  and  _120
REMARK   51  A    between atoms: _123  and  _125
REMARK   52  A    between atoms: _125  and  _126
REMARK   53  A    between atoms: _129  and  _131
REMARK   54  A    between atoms: _131  and  _132
REMARK   55  A    between atoms: _131  and  _134
REMARK   56  A    between atoms: _134  and  _135
REMARK   57  A    between atoms: _138  and  _140
REMARK   58  A    between atoms: _140  and  _141
REMARK   59  A    between atoms: _140  and  _143
REMARK   60  A    between atoms: _143  and  _144
REMARK   61  A    between atoms: _147  and  _149
REMARK   62  A    between atoms: _149  and  _150
REMARK   63  A    between atoms: _149  and  _152
REMARK   64  A    between atoms: _152  and  _153
REMARK   65  A    between atoms: _155  and  _157
REMARK   66  A    between atoms: _157  and  _158
REMARK   67  A    between atoms: _157  and  _160
REMARK   68  A    between atoms: _160  and  _161
REMARK   69  A    between atoms: _161  and  _280
REMARK   70  A    between atoms: _162  and  _164
REMARK   71  A    between atoms: _164  and  _165
REMARK   72  A    between atoms: _164  and  _167
REMARK   73  A    between atoms: _167  and  _168
REMARK   74  A    between atoms: _168  and  _169
REMARK   75  A    between atoms: _174  and  _176
REMARK   76  A    between atoms: _176  and  _177
REMARK   77  A    between atoms: _179  and  _181
REMARK   78  A    between atoms: _181  and  _182
REMARK   79  A    between atoms: _181  and  _184
REMARK   80  A    between atoms: _184  and  _185
REMARK   81  A    between atoms: _188  and  _190
REMARK   82  A    between atoms: _190  and  _191
REMARK   83  A    between atoms: _190  and  _193
REMARK   84  A    between atoms: _193  and  _194
REMARK   85  A    between atoms: _196  and  _198
REMARK   86  A    between atoms: _198  and  _199
REMARK   87  A    between atoms: _201  and  _203
REMARK   88  A    between atoms: _203  and  _204
REMARK   89  A    between atoms: _206  and  _208
REMARK   90  A    between atoms: _208  and  _209
REMARK   91  A    between atoms: _208  and  _211
REMARK   92  A    between atoms: _211  and  _212
REMARK   93  A    between atoms: _215  and  _217
REMARK   94  A    between atoms: _217  and  _218
REMARK   95  A    between atoms: _217  and  _220
REMARK   96  A    between atoms: _223  and  _225
REMARK   97  A    between atoms: _225  and  _226
REMARK   98  A    between atoms: _225  and  _228
REMARK   99  A    between atoms: _228  and  _229
REMARK  100  A    between atoms: _231  and  _233
REMARK  101  A    between atoms: _233  and  _234
REMARK  102  A    between atoms: _233  and  _236
REMARK  103  A    between atoms: _236  and  _237
REMARK  104  A    between atoms: _247  and  _249
REMARK  105  A    between atoms: _249  and  _250
REMARK  106  A    between atoms: _252  and  _254
REMARK  107  A    between atoms: _254  and  _255
REMARK  108  A    between atoms: _254  and  _257
REMARK  109  A    between atoms: _257  and  _258
REMARK  110  A    between atoms: _258  and  _259
REMARK  111  A    between atoms: _259  and  _260
REMARK  112  A    between atoms: _269  and  _271
REMARK  113  A    between atoms: _271  and  _272
REMARK  114  A    between atoms: _274  and  _276
REMARK  115  A    between atoms: _276  and  _277
REMARK  116  A    between atoms: _276  and  _279
REMARK  117  A    between atoms: _279  and  _280
REMARK  118  A    between atoms: _281  and  _283
REMARK  119  A    between atoms: _283  and  _284
REMARK  120  A    between atoms: _287  and  _289
REMARK  121  A    between atoms: _289  and  _290
REMARK  122  A    between atoms: _289  and  _292
REMARK  123  A    between atoms: _292  and  _293
REMARK  124  A    between atoms: _296  and  _298
REMARK  125  A    between atoms: _298  and  _299
REMARK  126  A    between atoms: _298  and  _301
REMARK  127  A    between atoms: _301  and  _302
REMARK  128  A    between atoms: _302  and  _303
REMARK  129  A    between atoms: _303  and  _304
REMARK  130  A    between atoms: _304  and  _305
REMARK  131  A    between atoms: _310  and  _311
REMARK  132  A    between atoms: _316  and  _318
REMARK  133  A    between atoms: _318  and  _319
REMARK  134  A    between atoms: _321  and  _323
REMARK  135  A    between atoms: _323  and  _324
REMARK  136  A    between atoms: _323  and  _326
REMARK  137  A    between atoms: _329  and  _331
REMARK  138  A    between atoms: _331  and  _332
REMARK  139  A    between atoms: _331  and  _334
REMARK  140  A    between atoms: _334  and  _335
REMARK  141  A    between atoms: _340  and  _341
REMARK                            x       y       z     vdW  Elec       q    Type
REMARK                         _______ _______ _______ _____ _____    ______ ____
ROOT
ATOM      1  O   HOH     1     -28.980 -15.031  14.422  0.00  0.00    +0.000 OA
ENDROOT
TORSDOF 0
REMARK  Name = ../refined-set-2016/3mhw/3mhw_pocket.pdb
REMARK  141 active torsions:
REMARK  status: ('A' for Active; 'I' for Inactive)
REMARK    1  A    between atoms: _1  and  _5
REMARK    2  A    between atoms: _5  and  _6
REMARK    3  A    between atoms: _5  and  _8
REMARK    4  A    between atoms: _8  and  _9
REMARK    5  A    between atoms: _12  and  _14
REMARK    6  A    between atoms: _14  and  _15
REMARK    7  A    between atoms: _14  and  _17
REMARK    8  A    between atoms: _17  and  _18
REMARK    9  A    between atoms: _21  and  _23
REMARK   10  A    between atoms: _23  and  _24
REMARK   11  A    between atoms: _23  and  _26
REMARK   12  A    between atoms: _28  and  _30
REMARK   13  A    between atoms: _30  and  _31
REMARK   14  A    between atoms: _30  and  _33
REMARK   15  A    between atoms: _33  and  _34
REMARK   16  A    between atoms: _39  and  _41
REMARK   17  A    between atoms: _41  and  _42
REMARK   18  A    between atoms: _41  and  _44
REMARK   19  A    between atoms: _44  and  _45
REMARK   20  A    between atoms: _50  and  _52
REMARK   21  A    between atoms: _52  and  _53
REMARK   22  A    between atoms: _52  and  _55
REMARK   23  A    between atoms: _55  and  _56
REMARK   24  A    between atoms: _59  and  _61
REMARK   25  A    between atoms: _61  and  _62
REMARK   26  A    between atoms: _61  and  _64
REMARK   27  A    between atoms: _64  and  _65
REMARK   28  A    between atoms: _68  and  _70
REMARK   29  A    between atoms: _70  and  _71
REMARK   30  A    between atoms: _70  and  _73
REMARK   31  A    between atoms: _73  and  _74
REMARK   32  A    between atoms: _74  and  _75
REMARK   33  A    between atoms: _75  and  _76
REMARK   34  A    between atoms: _76  and  _77
REMARK   35  A    between atoms: _81  and  _83
REMARK   36  A    between atoms: _83  and  _84
REMARK   37  A    between atoms: _83  and  _86
REMARK   38  A    between atoms: _86  and  _87
REMARK   39  A    between atoms: _89  and  _91
REMARK   40  A    between atoms: _91  and  _92
REMARK   41  A    between atoms: _91  and  _94
REMARK   42  A    between atoms: _94  and  _95
REMARK   43  A    between atoms: _100  and  _101
REMARK   44  A    between atoms: _103  and  _105
REMARK   45  A    between atoms: _105  and  _106
REMARK   46  A    between atoms: _105  and  _108
REMARK   47  A    between atoms: _108  and  _109
REMARK   48  A    between atoms: _114  and  _115
REMARK   49  A    between atoms: _117  and  _119
REMARK   50  A    between atoms: _119  and  _120
REMARK   51  A    between atoms: _123  and  _125
REMARK   52  A    between atoms: _125  and  _126
REMARK   53  A    between atoms: _129  and  _131
REMARK   54  A    between atoms: _131  and  _132
REMARK   55  A    between atoms: _131  and  _134
REMARK   56  A    between atoms: _134  and  _135
REMARK   57  A    between atoms: _138  and  _140
REMARK   58  A    between atoms: _140  and  _141
REMARK   59  A    between atoms: _140  and  _143
REMARK   60  A    between atoms: _143  and  _144
REMARK   61  A    between atoms: _147  and  _149
REMARK   62  A    between atoms: _149  and  _150
REMARK   63  A    between atoms: _149  and  _152
REMARK   64  A    between atoms: _152  and  _153
REMARK   65  A    between atoms: _155  and  _157
REMARK   66  A    between atoms: _157  and  _158
REMARK   67  A    between atoms: _157  and  _160
REMARK   68  A    between atoms: _160  and  _161
REMARK   69  A    between atoms: _161  and  _280
REMARK   70  A    between atoms: _162  and  _164
REMARK   71  A    between atoms: _164  and  _165
REMARK   72  A    between atoms: _164  and  _167
REMARK   73  A    between atoms: _167  and  _168
REMARK   74  A    between atoms: _168  and  _169
REMARK   75  A    between atoms: _174  and  _176
REMARK   76  A    between atoms: _176  and  _177
REMARK   77  A    between atoms: _179  and  _181
REMARK   78  A    between atoms: _181  and  _182
REMARK   79  A    between atoms: _181  and  _184
REMARK   80  A    between atoms: _184  and  _185
REMARK   81  A    between atoms: _188  and  _190
REMARK   82  A    between atoms: _190  and  _191
REMARK   83  A    between atoms: _190  and  _193
REMARK   84  A    between atoms: _193  and  _194
REMARK   85  A    between atoms: _196  and  _198
REMARK   86  A    between atoms: _198  and  _199
REMARK   87  A    between atoms: _201  and  _203
REMARK   88  A    between atoms: _203  and  _204
REMARK   89  A    between atoms: _206  and  _208
REMARK   90  A    between atoms: _208  and  _209
REMARK   91  A    between atoms: _208  and  _211
REMARK   92  A    between atoms: _211  and  _212
REMARK   93  A    between atoms: _215  and  _217
REMARK   94  A    between atoms: _217  and  _218
REMARK   95  A    between atoms: _217  and  _220
REMARK   96  A    between atoms: _223  and  _225
REMARK   97  A    between atoms: _225  and  _226
REMARK   98  A    between atoms: _225  and  _228
REMARK   99  A    between atoms: _228  and  _229
REMARK  100  A    between atoms: _231  and  _233
REMARK  101  A    between atoms: _233  and  _234
REMARK  102  A    between atoms: _233  and  _236
REMARK  103  A    between atoms: _236  and  _237
REMARK  104  A    between atoms: _247  and  _249
REMARK  105  A    between atoms: _249  and  _250
REMARK  106  A    between atoms: _252  and  _254
REMARK  107  A    between atoms: _254  and  _255
REMARK  108  A    between atoms: _254  and  _257
REMARK  109  A    between atoms: _257  and  _258
REMARK  110  A    between atoms: _258  and  _259
REMARK  111  A    between atoms: _259  and  _260
REMARK  112  A    between atoms: _269  and  _271
REMARK  113  A    between atoms: _271  and  _272
REMARK  114  A    between atoms: _274  and  _276
REMARK  115  A    between atoms: _276  and  _277
REMARK  116  A    between atoms: _276  and  _279
REMARK  117  A    between atoms: _279  and  _280
REMARK  118  A    between atoms: _281  and  _283
REMARK  119  A    between atoms: _283  and  _284
REMARK  120  A    between atoms: _287  and  _289
REMARK  121  A    between atoms: _289  and  _290
REMARK  122  A    between atoms: _289  and  _292
REMARK  123  A    between atoms: _292  and  _293
REMARK  124  A    between atoms: _296  and  _298
REMARK  125  A    between atoms: _298  and  _299
REMARK  126  A    between atoms: _298  and  _301
REMARK  127  A    between atoms: _301  and  _302
REMARK  128  A    between atoms: _302  and  _303
REMARK  129  A    between atoms: _303  and  _304
REMARK  130  A    between atoms: _304  and  _305
REMARK  131  A    between atoms: _310  and  _311
REMARK  132  A    between atoms: _316  and  _318
REMARK  133  A    between atoms: _318  and  _319
REMARK  134  A    between atoms: _321  and  _323
REMARK  135  A    between atoms: _323  and  _324
REMARK  136  A    between atoms: _323  and  _326
REMARK  137  A    between atoms: _329  and  _331
REMARK  138  A    between atoms: _331  and  _332
REMARK  139  A    between atoms: _331  and  _334
REMARK  140  A    between atoms: _334  and  _335
REMARK  141  A    between atoms: _340  and  _341
REMARK                            x       y       z     vdW  Elec       q    Type
REMARK                         _______ _______ _______ _____ _____    ______ ____
ROOT
ATOM      1  O   HOH     1     -28.825 -13.325   9.892  0.00  0.00    +0.000 OA
ENDROOT
TORSDOF 0
REMARK  Name = ../refined-set-2016/3mhw/3mhw_pocket.pdb
REMARK  141 active torsions:
REMARK  status: ('A' for Active; 'I' for Inactive)
REMARK    1  A    between atoms: _1  and  _5
REMARK    2  A    between atoms: _5  and  _6
REMARK    3  A    between atoms: _5  and  _8
REMARK    4  A    between atoms: _8  and  _9
REMARK    5  A    between atoms: _12  and  _14
REMARK    6  A    between atoms: _14  and  _15
REMARK    7  A    between atoms: _14  and  _17
REMARK    8  A    between atoms: _17  and  _18
REMARK    9  A    between atoms: _21  and  _23
REMARK   10  A    between atoms: _23  and  _24
REMARK   11  A    between atoms: _23  and  _26
REMARK   12  A    between atoms: _28  and  _30
REMARK   13  A    between atoms: _30  and  _31
REMARK   14  A    between atoms: _30  and  _33
REMARK   15  A    between atoms: _33  and  _34
REMARK   16  A    between atoms: _39  and  _41
REMARK   17  A    between atoms: _41  and  _42
REMARK   18  A    between atoms: _41  and  _44
REMARK   19  A    between atoms: _44  and  _45
REMARK   20  A    between atoms: _50  and  _52
REMARK   21  A    between atoms: _52  and  _53
REMARK   22  A    between atoms: _52  and  _55
REMARK   23  A    between atoms: _55  and  _56
REMARK   24  A    between atoms: _59  and  _61
REMARK   25  A    between atoms: _61  and  _62
REMARK   26  A    between atoms: _61  and  _64
REMARK   27  A    between atoms: _64  and  _65
REMARK   28  A    between atoms: _68  and  _70
REMARK   29  A    between atoms: _70  and  _71
REMARK   30  A    between atoms: _70  and  _73
REMARK   31  A    between atoms: _73  and  _74
REMARK   32  A    between atoms: _74  and  _75
REMARK   33  A    between atoms: _75  and  _76
REMARK   34  A    between atoms: _76  and  _77
REMARK   35  A    between atoms: _81  and  _83
REMARK   36  A    between atoms: _83  and  _84
REMARK   37  A    between atoms: _83  and  _86
REMARK   38  A    between atoms: _86  and  _87
REMARK   39  A    between atoms: _89  and  _91
REMARK   40  A    between atoms: _91  and  _92
REMARK   41  A    between atoms: _91  and  _94
REMARK   42  A    between atoms: _94  and  _95
REMARK   43  A    between atoms: _100  and  _101
REMARK   44  A    between atoms: _103  and  _105
REMARK   45  A    between atoms: _105  and  _106
REMARK   46  A    between atoms: _105  and  _108
REMARK   47  A    between atoms: _108  and  _109
REMARK   48  A    between atoms: _114  and  _115
REMARK   49  A    between atoms: _117  and  _119
REMARK   50  A    between atoms: _119  and  _120
REMARK   51  A    between atoms: _123  and  _125
REMARK   52  A    between atoms: _125  and  _126
REMARK   53  A    between atoms: _129  and  _131
REMARK   54  A    between atoms: _131  and  _132
REMARK   55  A    between atoms: _131  and  _134
REMARK   56  A    between atoms: _134  and  _135
REMARK   57  A    between atoms: _138  and  _140
REMARK   58  A    between atoms: _140  and  _141
REMARK   59  A    between atoms: _140  and  _143
REMARK   60  A    between atoms: _143  and  _144
REMARK   61  A    between atoms: _147  and  _149
REMARK   62  A    between atoms: _149  and  _150
REMARK   63  A    between atoms: _149  and  _152
REMARK   64  A    between atoms: _152  and  _153
REMARK   65  A    between atoms: _155  and  _157
REMARK   66  A    between atoms: _157  and  _158
REMARK   67  A    between atoms: _157  and  _160
REMARK   68  A    between atoms: _160  and  _161
REMARK   69  A    between atoms: _161  and  _280
REMARK   70  A    between atoms: _162  and  _164
REMARK   71  A    between atoms: _164  and  _165
REMARK   72  A    between atoms: _164  and  _167
REMARK   73  A    between atoms: _167  and  _168
REMARK   74  A    between atoms: _168  and  _169
REMARK   75  A    between atoms: _174  and  _176
REMARK   76  A    between atoms: _176  and  _177
REMARK   77  A    between atoms: _179  and  _181
REMARK   78  A    between atoms: _181  and  _182
REMARK   79  A    between atoms: _181  and  _184
REMARK   80  A    between atoms: _184  and  _185
REMARK   81  A    between atoms: _188  and  _190
REMARK   82  A    between atoms: _190  and  _191
REMARK   83  A    between atoms: _190  and  _193
REMARK   84  A    between atoms: _193  and  _194
REMARK   85  A    between atoms: _196  and  _198
REMARK   86  A    between atoms: _198  and  _199
REMARK   87  A    between atoms: _201  and  _203
REMARK   88  A    between atoms: _203  and  _204
REMARK   89  A    between atoms: _206  and  _208
REMARK   90  A    between atoms: _208  and  _209
REMARK   91  A    between atoms: _208  and  _211
REMARK   92  A    between atoms: _211  and  _212
REMARK   93  A    between atoms: _215  and  _217
REMARK   94  A    between atoms: _217  and  _218
REMARK   95  A    between atoms: _217  and  _220
REMARK   96  A    between atoms: _223  and  _225
REMARK   97  A    between atoms: _225  and  _226
REMARK   98  A    between atoms: _225  and  _228
REMARK   99  A    between atoms: _228  and  _229
REMARK  100  A    between atoms: _231  and  _233
REMARK  101  A    between atoms: _233  and  _234
REMARK  102  A    between atoms: _233  and  _236
REMARK  103  A    between atoms: _236  and  _237
REMARK  104  A    between atoms: _247  and  _249
REMARK  105  A    between atoms: _249  and  _250
REMARK  106  A    between atoms: _252  and  _254
REMARK  107  A    between atoms: _254  and  _255
REMARK  108  A    between atoms: _254  and  _257
REMARK  109  A    between atoms: _257  and  _258
REMARK  110  A    between atoms: _258  and  _259
REMARK  111  A    between atoms: _259  and  _260
REMARK  112  A    between atoms: _269  and  _271
REMARK  113  A    between atoms: _271  and  _272
REMARK  114  A    between atoms: _274  and  _276
REMARK  115  A    between atoms: _276  and  _277
REMARK  116  A    between atoms: _276  and  _279
REMARK  117  A    between atoms: _279  and  _280
REMARK  118  A    between atoms: _281  and  _283
REMARK  119  A    between atoms: _283  and  _284
REMARK  120  A    between atoms: _287  and  _289
REMARK  121  A    between atoms: _289  and  _290
REMARK  122  A    between atoms: _289  and  _292
REMARK  123  A    between atoms: _292  and  _293
REMARK  124  A    between atoms: _296  and  _298
REMARK  125  A    between atoms: _298  and  _299
REMARK  126  A    between atoms: _298  and  _301
REMARK  127  A    between atoms: _301  and  _302
REMARK  128  A    between atoms: _302  and  _303
REMARK  129  A    between atoms: _303  and  _304
REMARK  130  A    between atoms: _304  and  _305
REMARK  131  A    between atoms: _310  and  _311
REMARK  132  A    between atoms: _316  and  _318
REMARK  133  A    between atoms: _318  and  _319
REMARK  134  A    between atoms: _321  and  _323
REMARK  135  A    between atoms: _323  and  _324
REMARK  136  A    between atoms: _323  and  _326
REMARK  137  A    between atoms: _329  and  _331
REMARK  138  A    between atoms: _331  and  _332
REMARK  139  A    between atoms: _331  and  _334
REMARK  140  A    between atoms: _334  and  _335
REMARK  141  A    between atoms: _340  and  _341
REMARK                            x       y       z     vdW  Elec       q    Type
REMARK                         _______ _______ _______ _____ _____    ______ ____
ROOT
ATOM      1  O   HOH     1     -30.349 -14.386  12.306  0.00  0.00    +0.000 OA
ENDROOT
TORSDOF 0
REMARK  Name = ../refined-set-2016/3mhw/3mhw_pocket.pdb
REMARK  141 active torsions:
REMARK  status: ('A' for Active; 'I' for Inactive)
REMARK    1  A    between atoms: _1  and  _5
REMARK    2  A    between atoms: _5  and  _6
REMARK    3  A    between atoms: _5  and  _8
REMARK    4  A    between atoms: _8  and  _9
REMARK    5  A    between atoms: _12  and  _14
REMARK    6  A    between atoms: _14  and  _15
REMARK    7  A    between atoms: _14  and  _17
REMARK    8  A    between atoms: _17  and  _18
REMARK    9  A    between atoms: _21  and  _23
REMARK   10  A    between atoms: _23  and  _24
REMARK   11  A    between atoms: _23  and  _26
REMARK   12  A    between atoms: _28  and  _30
REMARK   13  A    between atoms: _30  and  _31
REMARK   14  A    between atoms: _30  and  _33
REMARK   15  A    between atoms: _33  and  _34
REMARK   16  A    between atoms: _39  and  _41
REMARK   17  A    between atoms: _41  and  _42
REMARK   18  A    between atoms: _41  and  _44
REMARK   19  A    between atoms: _44  and  _45
REMARK   20  A    between atoms: _50  and  _52
REMARK   21  A    between atoms: _52  and  _53
REMARK   22  A    between atoms: _52  and  _55
REMARK   23  A    between atoms: _55  and  _56
REMARK   24  A    between atoms: _59  and  _61
REMARK   25  A    between atoms: _61  and  _62
REMARK   26  A    between atoms: _61  and  _64
REMARK   27  A    between atoms: _64  and  _65
REMARK   28  A    between atoms: _68  and  _70
REMARK   29  A    between atoms: _70  and  _71
REMARK   30  A    between atoms: _70  and  _73
REMARK   31  A    between atoms: _73  and  _74
REMARK   32  A    between atoms: _74  and  _75
REMARK   33  A    between atoms: _75  and  _76
REMARK   34  A    between atoms: _76  and  _77
REMARK   35  A    between atoms: _81  and  _83
REMARK   36  A    between atoms: _83  and  _84
REMARK   37  A    between atoms: _83  and  _86
REMARK   38  A    between atoms: _86  and  _87
REMARK   39  A    between atoms: _89  and  _91
REMARK   40  A    between atoms: _91  and  _92
REMARK   41  A    between atoms: _91  and  _94
REMARK   42  A    between atoms: _94  and  _95
REMARK   43  A    between atoms: _100  and  _101
REMARK   44  A    between atoms: _103  and  _105
REMARK   45  A    between atoms: _105  and  _106
REMARK   46  A    between atoms: _105  and  _108
REMARK   47  A    between atoms: _108  and  _109
REMARK   48  A    between atoms: _114  and  _115
REMARK   49  A    between atoms: _117  and  _119
REMARK   50  A    between atoms: _119  and  _120
REMARK   51  A    between atoms: _123  and  _125
REMARK   52  A    between atoms: _125  and  _126
REMARK   53  A    between atoms: _129  and  _131
REMARK   54  A    between atoms: _131  and  _132
REMARK   55  A    between atoms: _131  and  _134
REMARK   56  A    between atoms: _134  and  _135
REMARK   57  A    between atoms: _138  and  _140
REMARK   58  A    between atoms: _140  and  _141
REMARK   59  A    between atoms: _140  and  _143
REMARK   60  A    between atoms: _143  and  _144
REMARK   61  A    between atoms: _147  and  _149
REMARK   62  A    between atoms: _149  and  _150
REMARK   63  A    between atoms: _149  and  _152
REMARK   64  A    between atoms: _152  and  _153
REMARK   65  A    between atoms: _155  and  _157
REMARK   66  A    between atoms: _157  and  _158
REMARK   67  A    between atoms: _157  and  _160
REMARK   68  A    between atoms: _160  and  _161
REMARK   69  A    between atoms: _161  and  _280
REMARK   70  A    between atoms: _162  and  _164
REMARK   71  A    between atoms: _164  and  _165
REMARK   72  A    between atoms: _164  and  _167
REMARK   73  A    between atoms: _167  and  _168
REMARK   74  A    between atoms: _168  and  _169
REMARK   75  A    between atoms: _174  and  _176
REMARK   76  A    between atoms: _176  and  _177
REMARK   77  A    between atoms: _179  and  _181
REMARK   78  A    between atoms: _181  and  _182
REMARK   79  A    between atoms: _181  and  _184
REMARK   80  A    between atoms: _184  and  _185
REMARK   81  A    between atoms: _188  and  _190
REMARK   82  A    between atoms: _190  and  _191
REMARK   83  A    between atoms: _190  and  _193
REMARK   84  A    between atoms: _193  and  _194
REMARK   85  A    between atoms: _196  and  _198
REMARK   86  A    between atoms: _198  and  _199
REMARK   87  A    between atoms: _201  and  _203
REMARK   88  A    between atoms: _203  and  _204
REMARK   89  A    between atoms: _206  and  _208
REMARK   90  A    between atoms: _208  and  _209
REMARK   91  A    between atoms: _208  and  _211
REMARK   92  A    between atoms: _211  and  _212
REMARK   93  A    between atoms: _215  and  _217
REMARK   94  A    between atoms: _217  and  _218
REMARK   95  A    between atoms: _217  and  _220
REMARK   96  A    between atoms: _223  and  _225
REMARK   97  A    between atoms: _225  and  _226
REMARK   98  A    between atoms: _225  and  _228
REMARK   99  A    between atoms: _228  and  _229
REMARK  100  A    between atoms: _231  and  _233
REMARK  101  A    between atoms: _233  and  _234
REMARK  102  A    between atoms: _233  and  _236
REMARK  103  A    between atoms: _236  and  _237
REMARK  104  A    between atoms: _247  and  _249
REMARK  105  A    between atoms: _249  and  _250
REMARK  106  A    between atoms: _252  and  _254
REMARK  107  A    between atoms: _254  and  _255
REMARK  108  A    between atoms: _254  and  _257
REMARK  109  A    between atoms: _257  and  _258
REMARK  110  A    between atoms: _258  and  _259
REMARK  111  A    between atoms: _259  and  _260
REMARK  112  A    between atoms: _269  and  _271
REMARK  113  A    between atoms: _271  and  _272
REMARK  114  A    between atoms: _274  and  _276
REMARK  115  A    between atoms: _276  and  _277
REMARK  116  A    between atoms: _276  and  _279
REMARK  117  A    between atoms: _279  and  _280
REMARK  118  A    between atoms: _281  and  _283
REMARK  119  A    between atoms: _283  and  _284
REMARK  120  A    between atoms: _287  and  _289
REMARK  121  A    between atoms: _289  and  _290
REMARK  122  A    between atoms: _289  and  _292
REMARK  123  A    between atoms: _292  and  _293
REMARK  124  A    between atoms: _296  and  _298
REMARK  125  A    between atoms: _298  and  _299
REMARK  126  A    between atoms: _298  and  _301
REMARK  127  A    between atoms: _301  and  _302
REMARK  128  A    between atoms: _302  and  _303
REMARK  129  A    between atoms: _303  and  _304
REMARK  130  A    between atoms: _304  and  _305
REMARK  131  A    between atoms: _310  and  _311
REMARK  132  A    between atoms: _316  and  _318
REMARK  133  A    between atoms: _318  and  _319
REMARK  134  A    between atoms: _321  and  _323
REMARK  135  A    between atoms: _323  and  _324
REMARK  136  A    between atoms: _323  and  _326
REMARK  137  A    between atoms: _329  and  _331
REMARK  138  A    between atoms: _331  and  _332
REMARK  139  A    between atoms: _331  and  _334
REMARK  140  A    between atoms: _334  and  _335
REMARK  141  A    between atoms: _340  and  _341
REMARK                            x       y       z     vdW  Elec       q    Type
REMARK                         _______ _______ _______ _____ _____    ______ ____
ROOT
ATOM      1  O   HOH     1     -32.775 -18.862   7.499  0.00  0.00    +0.000 OA
ENDROOT
TORSDOF 0
REMARK  Name = ../refined-set-2016/3mhw/3mhw_pocket.pdb
REMARK  141 active torsions:
REMARK  status: ('A' for Active; 'I' for Inactive)
REMARK    1  A    between atoms: _1  and  _5
REMARK    2  A    between atoms: _5  and  _6
REMARK    3  A    between atoms: _5  and  _8
REMARK    4  A    between atoms: _8  and  _9
REMARK    5  A    between atoms: _12  and  _14
REMARK    6  A    between atoms: _14  and  _15
REMARK    7  A    between atoms: _14  and  _17
REMARK    8  A    between atoms: _17  and  _18
REMARK    9  A    between atoms: _21  and  _23
REMARK   10  A    between atoms: _23  and  _24
REMARK   11  A    between atoms: _23  and  _26
REMARK   12  A    between atoms: _28  and  _30
REMARK   13  A    between atoms: _30  and  _31
REMARK   14  A    between atoms: _30  and  _33
REMARK   15  A    between atoms: _33  and  _34
REMARK   16  A    between atoms: _39  and  _41
REMARK   17  A    between atoms: _41  and  _42
REMARK   18  A    between atoms: _41  and  _44
REMARK   19  A    between atoms: _44  and  _45
REMARK   20  A    between atoms: _50  and  _52
REMARK   21  A    between atoms: _52  and  _53
REMARK   22  A    between atoms: _52  and  _55
REMARK   23  A    between atoms: _55  and  _56
REMARK   24  A    between atoms: _59  and  _61
REMARK   25  A    between atoms: _61  and  _62
REMARK   26  A    between atoms: _61  and  _64
REMARK   27  A    between atoms: _64  and  _65
REMARK   28  A    between atoms: _68  and  _70
REMARK   29  A    between atoms: _70  and  _71
REMARK   30  A    between atoms: _70  and  _73
REMARK   31  A    between atoms: _73  and  _74
REMARK   32  A    between atoms: _74  and  _75
REMARK   33  A    between atoms: _75  and  _76
REMARK   34  A    between atoms: _76  and  _77
REMARK   35  A    between atoms: _81  and  _83
REMARK   36  A    between atoms: _83  and  _84
REMARK   37  A    between atoms: _83  and  _86
REMARK   38  A    between atoms: _86  and  _87
REMARK   39  A    between atoms: _89  and  _91
REMARK   40  A    between atoms: _91  and  _92
REMARK   41  A    between atoms: _91  and  _94
REMARK   42  A    between atoms: _94  and  _95
REMARK   43  A    between atoms: _100  and  _101
REMARK   44  A    between atoms: _103  and  _105
REMARK   45  A    between atoms: _105  and  _106
REMARK   46  A    between atoms: _105  and  _108
REMARK   47  A    between atoms: _108  and  _109
REMARK   48  A    between atoms: _114  and  _115
REMARK   49  A    between atoms: _117  and  _119
REMARK   50  A    between atoms: _119  and  _120
REMARK   51  A    between atoms: _123  and  _125
REMARK   52  A    between atoms: _125  and  _126
REMARK   53  A    between atoms: _129  and  _131
REMARK   54  A    between atoms: _131  and  _132
REMARK   55  A    between atoms: _131  and  _134
REMARK   56  A    between atoms: _134  and  _135
REMARK   57  A    between atoms: _138  and  _140
REMARK   58  A    between atoms: _140  and  _141
REMARK   59  A    between atoms: _140  and  _143
REMARK   60  A    between atoms: _143  and  _144
REMARK   61  A    between atoms: _147  and  _149
REMARK   62  A    between atoms: _149  and  _150
REMARK   63  A    between atoms: _149  and  _152
REMARK   64  A    between atoms: _152  and  _153
REMARK   65  A    between atoms: _155  and  _157
REMARK   66  A    between atoms: _157  and  _158
REMARK   67  A    between atoms: _157  and  _160
REMARK   68  A    between atoms: _160  and  _161
REMARK   69  A    between atoms: _161  and  _280
REMARK   70  A    between atoms: _162  and  _164
REMARK   71  A    between atoms: _164  and  _165
REMARK   72  A    between atoms: _164  and  _167
REMARK   73  A    between atoms: _167  and  _168
REMARK   74  A    between atoms: _168  and  _169
REMARK   75  A    between atoms: _174  and  _176
REMARK   76  A    between atoms: _176  and  _177
REMARK   77  A    between atoms: _179  and  _181
REMARK   78  A    between atoms: _181  and  _182
REMARK   79  A    between atoms: _181  and  _184
REMARK   80  A    between atoms: _184  and  _185
REMARK   81  A    between atoms: _188  and  _190
REMARK   82  A    between atoms: _190  and  _191
REMARK   83  A    between atoms: _190  and  _193
REMARK   84  A    between atoms: _193  and  _194
REMARK   85  A    between atoms: _196  and  _198
REMARK   86  A    between atoms: _198  and  _199
REMARK   87  A    between atoms: _201  and  _203
REMARK   88  A    between atoms: _203  and  _204
REMARK   89  A    between atoms: _206  and  _208
REMARK   90  A    between atoms: _208  and  _209
REMARK   91  A    between atoms: _208  and  _211
REMARK   92  A    between atoms: _211  and  _212
REMARK   93  A    between atoms: _215  and  _217
REMARK   94  A    between atoms: _217  and  _218
REMARK   95  A    between atoms: _217  and  _220
REMARK   96  A    between atoms: _223  and  _225
REMARK   97  A    between atoms: _225  and  _226
REMARK   98  A    between atoms: _225  and  _228
REMARK   99  A    between atoms: _228  and  _229
REMARK  100  A    between atoms: _231  and  _233
REMARK  101  A    between atoms: _233  and  _234
REMARK  102  A    between atoms: _233  and  _236
REMARK  103  A    between atoms: _236  and  _237
REMARK  104  A    between atoms: _247  and  _249
REMARK  105  A    between atoms: _249  and  _250
REMARK  106  A    between atoms: _252  and  _254
REMARK  107  A    between atoms: _254  and  _255
REMARK  108  A    between atoms: _254  and  _257
REMARK  109  A    between atoms: _257  and  _258
REMARK  110  A    between atoms: _258  and  _259
REMARK  111  A    between atoms: _259  and  _260
REMARK  112  A    between atoms: _269  and  _271
REMARK  113  A    between atoms: _271  and  _272
REMARK  114  A    between atoms: _274  and  _276
REMARK  115  A    between atoms: _276  and  _277
REMARK  116  A    between atoms: _276  and  _279
REMARK  117  A    between atoms: _279  and  _280
REMARK  118  A    between atoms: _281  and  _283
REMARK  119  A    between atoms: _283  and  _284
REMARK  120  A    between atoms: _287  and  _289
REMARK  121  A    between atoms: _289  and  _290
REMARK  122  A    between atoms: _289  and  _292
REMARK  123  A    between atoms: _292  and  _293
REMARK  124  A    between atoms: _296  and  _298
REMARK  125  A    between atoms: _298  and  _299
REMARK  126  A    between atoms: _298  and  _301
REMARK  127  A    between atoms: _301  and  _302
REMARK  128  A    between atoms: _302  and  _303
REMARK  129  A    between atoms: _303  and  _304
REMARK  130  A    between atoms: _304  and  _305
REMARK  131  A    between atoms: _310  and  _311
REMARK  132  A    between atoms: _316  and  _318
REMARK  133  A    between atoms: _318  and  _319
REMARK  134  A    between atoms: _321  and  _323
REMARK  135  A    between atoms: _323  and  _324
REMARK  136  A    between atoms: _323  and  _326
REMARK  137  A    between atoms: _329  and  _331
REMARK  138  A    between atoms: _331  and  _332
REMARK  139  A    between atoms: _331  and  _334
REMARK  140  A    between atoms: _334  and  _335
REMARK  141  A    between atoms: _340  and  _341
REMARK                            x       y       z     vdW  Elec       q    Type
REMARK                         _______ _______ _______ _____ _____    ______ ____
ROOT
ATOM      1  O   HOH     1     -34.081 -22.040  15.281  0.00  0.00    +0.000 OA
ENDROOT
TORSDOF 0
REMARK  Name = ../refined-set-2016/3mhw/3mhw_pocket.pdb
REMARK  141 active torsions:
REMARK  status: ('A' for Active; 'I' for Inactive)
REMARK    1  A    between atoms: _1  and  _5
REMARK    2  A    between atoms: _5  and  _6
REMARK    3  A    between atoms: _5  and  _8
REMARK    4  A    between atoms: _8  and  _9
REMARK    5  A    between atoms: _12  and  _14
REMARK    6  A    between atoms: _14  and  _15
REMARK    7  A    between atoms: _14  and  _17
REMARK    8  A    between atoms: _17  and  _18
REMARK    9  A    between atoms: _21  and  _23
REMARK   10  A    between atoms: _23  and  _24
REMARK   11  A    between atoms: _23  and  _26
REMARK   12  A    between atoms: _28  and  _30
REMARK   13  A    between atoms: _30  and  _31
REMARK   14  A    between atoms: _30  and  _33
REMARK   15  A    between atoms: _33  and  _34
REMARK   16  A    between atoms: _39  and  _41
REMARK   17  A    between atoms: _41  and  _42
REMARK   18  A    between atoms: _41  and  _44
REMARK   19  A    between atoms: _44  and  _45
REMARK   20  A    between atoms: _50  and  _52
REMARK   21  A    between atoms: _52  and  _53
REMARK   22  A    between atoms: _52  and  _55
REMARK   23  A    between atoms: _55  and  _56
REMARK   24  A    between atoms: _59  and  _61
REMARK   25  A    between atoms: _61  and  _62
REMARK   26  A    between atoms: _61  and  _64
REMARK   27  A    between atoms: _64  and  _65
REMARK   28  A    between atoms: _68  and  _70
REMARK   29  A    between atoms: _70  and  _71
REMARK   30  A    between atoms: _70  and  _73
REMARK   31  A    between atoms: _73  and  _74
REMARK   32  A    between atoms: _74  and  _75
REMARK   33  A    between atoms: _75  and  _76
REMARK   34  A    between atoms: _76  and  _77
REMARK   35  A    between atoms: _81  and  _83
REMARK   36  A    between atoms: _83  and  _84
REMARK   37  A    between atoms: _83  and  _86
REMARK   38  A    between atoms: _86  and  _87
REMARK   39  A    between atoms: _89  and  _91
REMARK   40  A    between atoms: _91  and  _92
REMARK   41  A    between atoms: _91  and  _94
REMARK   42  A    between atoms: _94  and  _95
REMARK   43  A    between atoms: _100  and  _101
REMARK   44  A    between atoms: _103  and  _105
REMARK   45  A    between atoms: _105  and  _106
REMARK   46  A    between atoms: _105  and  _108
REMARK   47  A    between atoms: _108  and  _109
REMARK   48  A    between atoms: _114  and  _115
REMARK   49  A    between atoms: _117  and  _119
REMARK   50  A    between atoms: _119  and  _120
REMARK   51  A    between atoms: _123  and  _125
REMARK   52  A    between atoms: _125  and  _126
REMARK   53  A    between atoms: _129  and  _131
REMARK   54  A    between atoms: _131  and  _132
REMARK   55  A    between atoms: _131  and  _134
REMARK   56  A    between atoms: _134  and  _135
REMARK   57  A    between atoms: _138  and  _140
REMARK   58  A    between atoms: _140  and  _141
REMARK   59  A    between atoms: _140  and  _143
REMARK   60  A    between atoms: _143  and  _144
REMARK   61  A    between atoms: _147  and  _149
REMARK   62  A    between atoms: _149  and  _150
REMARK   63  A    between atoms: _149  and  _152
REMARK   64  A    between atoms: _152  and  _153
REMARK   65  A    between atoms: _155  and  _157
REMARK   66  A    between atoms: _157  and  _158
REMARK   67  A    between atoms: _157  and  _160
REMARK   68  A    between atoms: _160  and  _161
REMARK   69  A    between atoms: _161  and  _280
REMARK   70  A    between atoms: _162  and  _164
REMARK   71  A    between atoms: _164  and  _165
REMARK   72  A    between atoms: _164  and  _167
REMARK   73  A    between atoms: _167  and  _168
REMARK   74  A    between atoms: _168  and  _169
REMARK   75  A    between atoms: _174  and  _176
REMARK   76  A    between atoms: _176  and  _177
REMARK   77  A    between atoms: _179  and  _181
REMARK   78  A    between atoms: _181  and  _182
REMARK   79  A    between atoms: _181  and  _184
REMARK   80  A    between atoms: _184  and  _185
REMARK   81  A    between atoms: _188  and  _190
REMARK   82  A    between atoms: _190  and  _191
REMARK   83  A    between atoms: _190  and  _193
REMARK   84  A    between atoms: _193  and  _194
REMARK   85  A    between atoms: _196  and  _198
REMARK   86  A    between atoms: _198  and  _199
REMARK   87  A    between atoms: _201  and  _203
REMARK   88  A    between atoms: _203  and  _204
REMARK   89  A    between atoms: _206  and  _208
REMARK   90  A    between atoms: _208  and  _209
REMARK   91  A    between atoms: _208  and  _211
REMARK   92  A    between atoms: _211  and  _212
REMARK   93  A    between atoms: _215  and  _217
REMARK   94  A    between atoms: _217  and  _218
REMARK   95  A    between atoms: _217  and  _220
REMARK   96  A    between atoms: _223  and  _225
REMARK   97  A    between atoms: _225  and  _226
REMARK   98  A    between atoms: _225  and  _228
REMARK   99  A    between atoms: _228  and  _229
REMARK  100  A    between atoms: _231  and  _233
REMARK  101  A    between atoms: _233  and  _234
REMARK  102  A    between atoms: _233  and  _236
REMARK  103  A    between atoms: _236  and  _237
REMARK  104  A    between atoms: _247  and  _249
REMARK  105  A    between atoms: _249  and  _250
REMARK  106  A    between atoms: _252  and  _254
REMARK  107  A    between atoms: _254  and  _255
REMARK  108  A    between atoms: _254  and  _257
REMARK  109  A    between atoms: _257  and  _258
REMARK  110  A    between atoms: _258  and  _259
REMARK  111  A    between atoms: _259  and  _260
REMARK  112  A    between atoms: _269  and  _271
REMARK  113  A    between atoms: _271  and  _272
REMARK  114  A    between atoms: _274  and  _276
REMARK  115  A    between atoms: _276  and  _277
REMARK  116  A    between atoms: _276  and  _279
REMARK  117  A    between atoms: _279  and  _280
REMARK  118  A    between atoms: _281  and  _283
REMARK  119  A    between atoms: _283  and  _284
REMARK  120  A    between atoms: _287  and  _289
REMARK  121  A    between atoms: _289  and  _290
REMARK  122  A    between atoms: _289  and  _292
REMARK  123  A    between atoms: _292  and  _293
REMARK  124  A    between atoms: _296  and  _298
REMARK  125  A    between atoms: _298  and  _299
REMARK  126  A    between atoms: _298  and  _301
REMARK  127  A    between atoms: _301  and  _302
REMARK  128  A    between atoms: _302  and  _303
REMARK  129  A    between atoms: _303  and  _304
REMARK  130  A    between atoms: _304  and  _305
REMARK  131  A    between atoms: _310  and  _311
REMARK  132  A    between atoms: _316  and  _318
REMARK  133  A    between atoms: _318  and  _319
REMARK  134  A    between atoms: _321  and  _323
REMARK  135  A    between atoms: _323  and  _324
REMARK  136  A    between atoms: _323  and  _326
REMARK  137  A    between atoms: _329  and  _331
REMARK  138  A    between atoms: _331  and  _332
REMARK  139  A    between atoms: _331  and  _334
REMARK  140  A    between atoms: _334  and  _335
REMARK  141  A    between atoms: _340  and  _341
REMARK                            x       y       z     vdW  Elec       q    Type
REMARK                         _______ _______ _______ _____ _____    ______ ____
ROOT
ATOM      1  O   HOH     1     -26.369 -12.226  10.854  0.00  0.00    +0.000 OA
ENDROOT
TORSDOF 0
REMARK  Name = ../refined-set-2016/3mhw/3mhw_pocket.pdb
REMARK  141 active torsions:
REMARK  status: ('A' for Active; 'I' for Inactive)
REMARK    1  A    between atoms: _1  and  _5
REMARK    2  A    between atoms: _5  and  _6
REMARK    3  A    between atoms: _5  and  _8
REMARK    4  A    between atoms: _8  and  _9
REMARK    5  A    between atoms: _12  and  _14
REMARK    6  A    between atoms: _14  and  _15
REMARK    7  A    between atoms: _14  and  _17
REMARK    8  A    between atoms: _17  and  _18
REMARK    9  A    between atoms: _21  and  _23
REMARK   10  A    between atoms: _23  and  _24
REMARK   11  A    between atoms: _23  and  _26
REMARK   12  A    between atoms: _28  and  _30
REMARK   13  A    between atoms: _30  and  _31
REMARK   14  A    between atoms: _30  and  _33
REMARK   15  A    between atoms: _33  and  _34
REMARK   16  A    between atoms: _39  and  _41
REMARK   17  A    between atoms: _41  and  _42
REMARK   18  A    between atoms: _41  and  _44
REMARK   19  A    between atoms: _44  and  _45
REMARK   20  A    between atoms: _50  and  _52
REMARK   21  A    between atoms: _52  and  _53
REMARK   22  A    between atoms: _52  and  _55
REMARK   23  A    between atoms: _55  and  _56
REMARK   24  A    between atoms: _59  and  _61
REMARK   25  A    between atoms: _61  and  _62
REMARK   26  A    between atoms: _61  and  _64
REMARK   27  A    between atoms: _64  and  _65
REMARK   28  A    between atoms: _68  and  _70
REMARK   29  A    between atoms: _70  and  _71
REMARK   30  A    between atoms: _70  and  _73
REMARK   31  A    between atoms: _73  and  _74
REMARK   32  A    between atoms: _74  and  _75
REMARK   33  A    between atoms: _75  and  _76
REMARK   34  A    between atoms: _76  and  _77
REMARK   35  A    between atoms: _81  and  _83
REMARK   36  A    between atoms: _83  and  _84
REMARK   37  A    between atoms: _83  and  _86
REMARK   38  A    between atoms: _86  and  _87
REMARK   39  A    between atoms: _89  and  _91
REMARK   40  A    between atoms: _91  and  _92
REMARK   41  A    between atoms: _91  and  _94
REMARK   42  A    between atoms: _94  and  _95
REMARK   43  A    between atoms: _100  and  _101
REMARK   44  A    between atoms: _103  and  _105
REMARK   45  A    between atoms: _105  and  _106
REMARK   46  A    between atoms: _105  and  _108
REMARK   47  A    between atoms: _108  and  _109
REMARK   48  A    between atoms: _114  and  _115
REMARK   49  A    between atoms: _117  and  _119
REMARK   50  A    between atoms: _119  and  _120
REMARK   51  A    between atoms: _123  and  _125
REMARK   52  A    between atoms: _125  and  _126
REMARK   53  A    between atoms: _129  and  _131
REMARK   54  A    between atoms: _131  and  _132
REMARK   55  A    between atoms: _131  and  _134
REMARK   56  A    between atoms: _134  and  _135
REMARK   57  A    between atoms: _138  and  _140
REMARK   58  A    between atoms: _140  and  _141
REMARK   59  A    between atoms: _140  and  _143
REMARK   60  A    between atoms: _143  and  _144
REMARK   61  A    between atoms: _147  and  _149
REMARK   62  A    between atoms: _149  and  _150
REMARK   63  A    between atoms: _149  and  _152
REMARK   64  A    between atoms: _152  and  _153
REMARK   65  A    between atoms: _155  and  _157
REMARK   66  A    between atoms: _157  and  _158
REMARK   67  A    between atoms: _157  and  _160
REMARK   68  A    between atoms: _160  and  _161
REMARK   69  A    between atoms: _161  and  _280
REMARK   70  A    between atoms: _162  and  _164
REMARK   71  A    between atoms: _164  and  _165
REMARK   72  A    between atoms: _164  and  _167
REMARK   73  A    between atoms: _167  and  _168
REMARK   74  A    between atoms: _168  and  _169
REMARK   75  A    between atoms: _174  and  _176
REMARK   76  A    between atoms: _176  and  _177
REMARK   77  A    between atoms: _179  and  _181
REMARK   78  A    between atoms: _181  and  _182
REMARK   79  A    between atoms: _181  and  _184
REMARK   80  A    between atoms: _184  and  _185
REMARK   81  A    between atoms: _188  and  _190
REMARK   82  A    between atoms: _190  and  _191
REMARK   83  A    between atoms: _190  and  _193
REMARK   84  A    between atoms: _193  and  _194
REMARK   85  A    between atoms: _196  and  _198
REMARK   86  A    between atoms: _198  and  _199
REMARK   87  A    between atoms: _201  and  _203
REMARK   88  A    between atoms: _203  and  _204
REMARK   89  A    between atoms: _206  and  _208
REMARK   90  A    between atoms: _208  and  _209
REMARK   91  A    between atoms: _208  and  _211
REMARK   92  A    between atoms: _211  and  _212
REMARK   93  A    between atoms: _215  and  _217
REMARK   94  A    between atoms: _217  and  _218
REMARK   95  A    between atoms: _217  and  _220
REMARK   96  A    between atoms: _223  and  _225
REMARK   97  A    between atoms: _225  and  _226
REMARK   98  A    between atoms: _225  and  _228
REMARK   99  A    between atoms: _228  and  _229
REMARK  100  A    between atoms: _231  and  _233
REMARK  101  A    between atoms: _233  and  _234
REMARK  102  A    between atoms: _233  and  _236
REMARK  103  A    between atoms: _236  and  _237
REMARK  104  A    between atoms: _247  and  _249
REMARK  105  A    between atoms: _249  and  _250
REMARK  106  A    between atoms: _252  and  _254
REMARK  107  A    between atoms: _254  and  _255
REMARK  108  A    between atoms: _254  and  _257
REMARK  109  A    between atoms: _257  and  _258
REMARK  110  A    between atoms: _258  and  _259
REMARK  111  A    between atoms: _259  and  _260
REMARK  112  A    between atoms: _269  and  _271
REMARK  113  A    between atoms: _271  and  _272
REMARK  114  A    between atoms: _274  and  _276
REMARK  115  A    between atoms: _276  and  _277
REMARK  116  A    between atoms: _276  and  _279
REMARK  117  A    between atoms: _279  and  _280
REMARK  118  A    between atoms: _281  and  _283
REMARK  119  A    between atoms: _283  and  _284
REMARK  120  A    between atoms: _287  and  _289
REMARK  121  A    between atoms: _289  and  _290
REMARK  122  A    between atoms: _289  and  _292
REMARK  123  A    between atoms: _292  and  _293
REMARK  124  A    between atoms: _296  and  _298
REMARK  125  A    between atoms: _298  and  _299
REMARK  126  A    between atoms: _298  and  _301
REMARK  127  A    between atoms: _301  and  _302
REMARK  128  A    between atoms: _302  and  _303
REMARK  129  A    between atoms: _303  and  _304
REMARK  130  A    between atoms: _304  and  _305
REMARK  131  A    between atoms: _310  and  _311
REMARK  132  A    between atoms: _316  and  _318
REMARK  133  A    between atoms: _318  and  _319
REMARK  134  A    between atoms: _321  and  _323
REMARK  135  A    between atoms: _323  and  _324
REMARK  136  A    between atoms: _323  and  _326
REMARK  137  A    between atoms: _329  and  _331
REMARK  138  A    between atoms: _331  and  _332
REMARK  139  A    between atoms: _331  and  _334
REMARK  140  A    between atoms: _334  and  _335
REMARK  141  A    between atoms: _340  and  _341
REMARK                            x       y       z     vdW  Elec       q    Type
REMARK                         _______ _______ _______ _____ _____    ______ ____
ROOT
ATOM      1  O   HOH     1     -29.680 -17.956  13.692  0.00  0.00    +0.000 OA
ENDROOT
TORSDOF 0
REMARK  Name = ../refined-set-2016/3mhw/3mhw_pocket.pdb
REMARK  141 active torsions:
REMARK  status: ('A' for Active; 'I' for Inactive)
REMARK    1  A    between atoms: _1  and  _5
REMARK    2  A    between atoms: _5  and  _6
REMARK    3  A    between atoms: _5  and  _8
REMARK    4  A    between atoms: _8  and  _9
REMARK    5  A    between atoms: _12  and  _14
REMARK    6  A    between atoms: _14  and  _15
REMARK    7  A    between atoms: _14  and  _17
REMARK    8  A    between atoms: _17  and  _18
REMARK    9  A    between atoms: _21  and  _23
REMARK   10  A    between atoms: _23  and  _24
REMARK   11  A    between atoms: _23  and  _26
REMARK   12  A    between atoms: _28  and  _30
REMARK   13  A    between atoms: _30  and  _31
REMARK   14  A    between atoms: _30  and  _33
REMARK   15  A    between atoms: _33  and  _34
REMARK   16  A    between atoms: _39  and  _41
REMARK   17  A    between atoms: _41  and  _42
REMARK   18  A    between atoms: _41  and  _44
REMARK   19  A    between atoms: _44  and  _45
REMARK   20  A    between atoms: _50  and  _52
REMARK   21  A    between atoms: _52  and  _53
REMARK   22  A    between atoms: _52  and  _55
REMARK   23  A    between atoms: _55  and  _56
REMARK   24  A    between atoms: _59  and  _61
REMARK   25  A    between atoms: _61  and  _62
REMARK   26  A    between atoms: _61  and  _64
REMARK   27  A    between atoms: _64  and  _65
REMARK   28  A    between atoms: _68  and  _70
REMARK   29  A    between atoms: _70  and  _71
REMARK   30  A    between atoms: _70  and  _73
REMARK   31  A    between atoms: _73  and  _74
REMARK   32  A    between atoms: _74  and  _75
REMARK   33  A    between atoms: _75  and  _76
REMARK   34  A    between atoms: _76  and  _77
REMARK   35  A    between atoms: _81  and  _83
REMARK   36  A    between atoms: _83  and  _84
REMARK   37  A    between atoms: _83  and  _86
REMARK   38  A    between atoms: _86  and  _87
REMARK   39  A    between atoms: _89  and  _91
REMARK   40  A    between atoms: _91  and  _92
REMARK   41  A    between atoms: _91  and  _94
REMARK   42  A    between atoms: _94  and  _95
REMARK   43  A    between atoms: _100  and  _101
REMARK   44  A    between atoms: _103  and  _105
REMARK   45  A    between atoms: _105  and  _106
REMARK   46  A    between atoms: _105  and  _108
REMARK   47  A    between atoms: _108  and  _109
REMARK   48  A    between atoms: _114  and  _115
REMARK   49  A    between atoms: _117  and  _119
REMARK   50  A    between atoms: _119  and  _120
REMARK   51  A    between atoms: _123  and  _125
REMARK   52  A    between atoms: _125  and  _126
REMARK   53  A    between atoms: _129  and  _131
REMARK   54  A    between atoms: _131  and  _132
REMARK   55  A    between atoms: _131  and  _134
REMARK   56  A    between atoms: _134  and  _135
REMARK   57  A    between atoms: _138  and  _140
REMARK   58  A    between atoms: _140  and  _141
REMARK   59  A    between atoms: _140  and  _143
REMARK   60  A    between atoms: _143  and  _144
REMARK   61  A    between atoms: _147  and  _149
REMARK   62  A    between atoms: _149  and  _150
REMARK   63  A    between atoms: _149  and  _152
REMARK   64  A    between atoms: _152  and  _153
REMARK   65  A    between atoms: _155  and  _157
REMARK   66  A    between atoms: _157  and  _158
REMARK   67  A    between atoms: _157  and  _160
REMARK   68  A    between atoms: _160  and  _161
REMARK   69  A    between atoms: _161  and  _280
REMARK   70  A    between atoms: _162  and  _164
REMARK   71  A    between atoms: _164  and  _165
REMARK   72  A    between atoms: _164  and  _167
REMARK   73  A    between atoms: _167  and  _168
REMARK   74  A    between atoms: _168  and  _169
REMARK   75  A    between atoms: _174  and  _176
REMARK   76  A    between atoms: _176  and  _177
REMARK   77  A    between atoms: _179  and  _181
REMARK   78  A    between atoms: _181  and  _182
REMARK   79  A    between atoms: _181  and  _184
REMARK   80  A    between atoms: _184  and  _185
REMARK   81  A    between atoms: _188  and  _190
REMARK   82  A    between atoms: _190  and  _191
REMARK   83  A    between atoms: _190  and  _193
REMARK   84  A    between atoms: _193  and  _194
REMARK   85  A    between atoms: _196  and  _198
REMARK   86  A    between atoms: _198  and  _199
REMARK   87  A    between atoms: _201  and  _203
REMARK   88  A    between atoms: _203  and  _204
REMARK   89  A    between atoms: _206  and  _208
REMARK   90  A    between atoms: _208  and  _209
REMARK   91  A    between atoms: _208  and  _211
REMARK   92  A    between atoms: _211  and  _212
REMARK   93  A    between atoms: _215  and  _217
REMARK   94  A    between atoms: _217  and  _218
REMARK   95  A    between atoms: _217  and  _220
REMARK   96  A    between atoms: _223  and  _225
REMARK   97  A    between atoms: _225  and  _226
REMARK   98  A    between atoms: _225  and  _228
REMARK   99  A    between atoms: _228  and  _229
REMARK  100  A    between atoms: _231  and  _233
REMARK  101  A    between atoms: _233  and  _234
REMARK  102  A    between atoms: _233  and  _236
REMARK  103  A    between atoms: _236  and  _237
REMARK  104  A    between atoms: _247  and  _249
REMARK  105  A    between atoms: _249  and  _250
REMARK  106  A    between atoms: _252  and  _254
REMARK  107  A    between atoms: _254  and  _255
REMARK  108  A    between atoms: _254  and  _257
REMARK  109  A    between atoms: _257  and  _258
REMARK  110  A    between atoms: _258  and  _259
REMARK  111  A    between atoms: _259  and  _260
REMARK  112  A    between atoms: _269  and  _271
REMARK  113  A    between atoms: _271  and  _272
REMARK  114  A    between atoms: _274  and  _276
REMARK  115  A    between atoms: _276  and  _277
REMARK  116  A    between atoms: _276  and  _279
REMARK  117  A    between atoms: _279  and  _280
REMARK  118  A    between atoms: _281  and  _283
REMARK  119  A    between atoms: _283  and  _284
REMARK  120  A    between atoms: _287  and  _289
REMARK  121  A    between atoms: _289  and  _290
REMARK  122  A    between atoms: _289  and  _292
REMARK  123  A    between atoms: _292  and  _293
REMARK  124  A    between atoms: _296  and  _298
REMARK  125  A    between atoms: _298  and  _299
REMARK  126  A    between atoms: _298  and  _301
REMARK  127  A    between atoms: _301  and  _302
REMARK  128  A    between atoms: _302  and  _303
REMARK  129  A    between atoms: _303  and  _304
REMARK  130  A    between atoms: _304  and  _305
REMARK  131  A    between atoms: _310  and  _311
REMARK  132  A    between atoms: _316  and  _318
REMARK  133  A    between atoms: _318  and  _319
REMARK  134  A    between atoms: _321  and  _323
REMARK  135  A    between atoms: _323  and  _324
REMARK  136  A    between atoms: _323  and  _326
REMARK  137  A    between atoms: _329  and  _331
REMARK  138  A    between atoms: _331  and  _332
REMARK  139  A    between atoms: _331  and  _334
REMARK  140  A    between atoms: _334  and  _335
REMARK  141  A    between atoms: _340  and  _341
REMARK                            x       y       z     vdW  Elec       q    Type
REMARK                         _______ _______ _______ _____ _____    ______ ____
ROOT
ATOM      1  O   HOH     1     -30.548 -11.685  12.854  0.00  0.00    +0.000 OA
ENDROOT
TORSDOF 0
REMARK  Name = ../refined-set-2016/3mhw/3mhw_pocket.pdb
REMARK  141 active torsions:
REMARK  status: ('A' for Active; 'I' for Inactive)
REMARK    1  A    between atoms: _1  and  _5
REMARK    2  A    between atoms: _5  and  _6
REMARK    3  A    between atoms: _5  and  _8
REMARK    4  A    between atoms: _8  and  _9
REMARK    5  A    between atoms: _12  and  _14
REMARK    6  A    between atoms: _14  and  _15
REMARK    7  A    between atoms: _14  and  _17
REMARK    8  A    between atoms: _17  and  _18
REMARK    9  A    between atoms: _21  and  _23
REMARK   10  A    between atoms: _23  and  _24
REMARK   11  A    between atoms: _23  and  _26
REMARK   12  A    between atoms: _28  and  _30
REMARK   13  A    between atoms: _30  and  _31
REMARK   14  A    between atoms: _30  and  _33
REMARK   15  A    between atoms: _33  and  _34
REMARK   16  A    between atoms: _39  and  _41
REMARK   17  A    between atoms: _41  and  _42
REMARK   18  A    between atoms: _41  and  _44
REMARK   19  A    between atoms: _44  and  _45
REMARK   20  A    between atoms: _50  and  _52
REMARK   21  A    between atoms: _52  and  _53
REMARK   22  A    between atoms: _52  and  _55
REMARK   23  A    between atoms: _55  and  _56
REMARK   24  A    between atoms: _59  and  _61
REMARK   25  A    between atoms: _61  and  _62
REMARK   26  A    between atoms: _61  and  _64
REMARK   27  A    between atoms: _64  and  _65
REMARK   28  A    between atoms: _68  and  _70
REMARK   29  A    between atoms: _70  and  _71
REMARK   30  A    between atoms: _70  and  _73
REMARK   31  A    between atoms: _73  and  _74
REMARK   32  A    between atoms: _74  and  _75
REMARK   33  A    between atoms: _75  and  _76
REMARK   34  A    between atoms: _76  and  _77
REMARK   35  A    between atoms: _81  and  _83
REMARK   36  A    between atoms: _83  and  _84
REMARK   37  A    between atoms: _83  and  _86
REMARK   38  A    between atoms: _86  and  _87
REMARK   39  A    between atoms: _89  and  _91
REMARK   40  A    between atoms: _91  and  _92
REMARK   41  A    between atoms: _91  and  _94
REMARK   42  A    between atoms: _94  and  _95
REMARK   43  A    between atoms: _100  and  _101
REMARK   44  A    between atoms: _103  and  _105
REMARK   45  A    between atoms: _105  and  _106
REMARK   46  A    between atoms: _105  and  _108
REMARK   47  A    between atoms: _108  and  _109
REMARK   48  A    between atoms: _114  and  _115
REMARK   49  A    between atoms: _117  and  _119
REMARK   50  A    between atoms: _119  and  _120
REMARK   51  A    between atoms: _123  and  _125
REMARK   52  A    between atoms: _125  and  _126
REMARK   53  A    between atoms: _129  and  _131
REMARK   54  A    between atoms: _131  and  _132
REMARK   55  A    between atoms: _131  and  _134
REMARK   56  A    between atoms: _134  and  _135
REMARK   57  A    between atoms: _138  and  _140
REMARK   58  A    between atoms: _140  and  _141
REMARK   59  A    between atoms: _140  and  _143
REMARK   60  A    between atoms: _143  and  _144
REMARK   61  A    between atoms: _147  and  _149
REMARK   62  A    between atoms: _149  and  _150
REMARK   63  A    between atoms: _149  and  _152
REMARK   64  A    between atoms: _152  and  _153
REMARK   65  A    between atoms: _155  and  _157
REMARK   66  A    between atoms: _157  and  _158
REMARK   67  A    between atoms: _157  and  _160
REMARK   68  A    between atoms: _160  and  _161
REMARK   69  A    between atoms: _161  and  _280
REMARK   70  A    between atoms: _162  and  _164
REMARK   71  A    between atoms: _164  and  _165
REMARK   72  A    between atoms: _164  and  _167
REMARK   73  A    between atoms: _167  and  _168
REMARK   74  A    between atoms: _168  and  _169
REMARK   75  A    between atoms: _174  and  _176
REMARK   76  A    between atoms: _176  and  _177
REMARK   77  A    between atoms: _179  and  _181
REMARK   78  A    between atoms: _181  and  _182
REMARK   79  A    between atoms: _181  and  _184
REMARK   80  A    between atoms: _184  and  _185
REMARK   81  A    between atoms: _188  and  _190
REMARK   82  A    between atoms: _190  and  _191
REMARK   83  A    between atoms: _190  and  _193
REMARK   84  A    between atoms: _193  and  _194
REMARK   85  A    between atoms: _196  and  _198
REMARK   86  A    between atoms: _198  and  _199
REMARK   87  A    between atoms: _201  and  _203
REMARK   88  A    between atoms: _203  and  _204
REMARK   89  A    between atoms: _206  and  _208
REMARK   90  A    between atoms: _208  and  _209
REMARK   91  A    between atoms: _208  and  _211
REMARK   92  A    between atoms: _211  and  _212
REMARK   93  A    between atoms: _215  and  _217
REMARK   94  A    between atoms: _217  and  _218
REMARK   95  A    between atoms: _217  and  _220
REMARK   96  A    between atoms: _223  and  _225
REMARK   97  A    between atoms: _225  and  _226
REMARK   98  A    between atoms: _225  and  _228
REMARK   99  A    between atoms: _228  and  _229
REMARK  100  A    between atoms: _231  and  _233
REMARK  101  A    between atoms: _233  and  _234
REMARK  102  A    between atoms: _233  and  _236
REMARK  103  A    between atoms: _236  and  _237
REMARK  104  A    between atoms: _247  and  _249
REMARK  105  A    between atoms: _249  and  _250
REMARK  106  A    between atoms: _252  and  _254
REMARK  107  A    between atoms: _254  and  _255
REMARK  108  A    between atoms: _254  and  _257
REMARK  109  A    between atoms: _257  and  _258
REMARK  110  A    between atoms: _258  and  _259
REMARK  111  A    between atoms: _259  and  _260
REMARK  112  A    between atoms: _269  and  _271
REMARK  113  A    between atoms: _271  and  _272
REMARK  114  A    between atoms: _274  and  _276
REMARK  115  A    between atoms: _276  and  _277
REMARK  116  A    between atoms: _276  and  _279
REMARK  117  A    between atoms: _279  and  _280
REMARK  118  A    between atoms: _281  and  _283
REMARK  119  A    between atoms: _283  and  _284
REMARK  120  A    between atoms: _287  and  _289
REMARK  121  A    between atoms: _289  and  _290
REMARK  122  A    between atoms: _289  and  _292
REMARK  123  A    between atoms: _292  and  _293
REMARK  124  A    between atoms: _296  and  _298
REMARK  125  A    between atoms: _298  and  _299
REMARK  126  A    between atoms: _298  and  _301
REMARK  127  A    between atoms: _301  and  _302
REMARK  128  A    between atoms: _302  and  _303
REMARK  129  A    between atoms: _303  and  _304
REMARK  130  A    between atoms: _304  and  _305
REMARK  131  A    between atoms: _310  and  _311
REMARK  132  A    between atoms: _316  and  _318
REMARK  133  A    between atoms: _318  and  _319
REMARK  134  A    between atoms: _321  and  _323
REMARK  135  A    between atoms: _323  and  _324
REMARK  136  A    between atoms: _323  and  _326
REMARK  137  A    between atoms: _329  and  _331
REMARK  138  A    between atoms: _331  and  _332
REMARK  139  A    between atoms: _331  and  _334
REMARK  140  A    between atoms: _334  and  _335
REMARK  141  A    between atoms: _340  and  _341
REMARK                            x       y       z     vdW  Elec       q    Type
REMARK                         _______ _______ _______ _____ _____    ______ ____
ROOT
ATOM      1  O   HOH     1     -22.492 -14.413  15.193  0.00  0.00    +0.000 OA
ENDROOT
TORSDOF 0
REMARK  Name = ../refined-set-2016/3mhw/3mhw_pocket.pdb
REMARK  141 active torsions:
REMARK  status: ('A' for Active; 'I' for Inactive)
REMARK    1  A    between atoms: _1  and  _5
REMARK    2  A    between atoms: _5  and  _6
REMARK    3  A    between atoms: _5  and  _8
REMARK    4  A    between atoms: _8  and  _9
REMARK    5  A    between atoms: _12  and  _14
REMARK    6  A    between atoms: _14  and  _15
REMARK    7  A    between atoms: _14  and  _17
REMARK    8  A    between atoms: _17  and  _18
REMARK    9  A    between atoms: _21  and  _23
REMARK   10  A    between atoms: _23  and  _24
REMARK   11  A    between atoms: _23  and  _26
REMARK   12  A    between atoms: _28  and  _30
REMARK   13  A    between atoms: _30  and  _31
REMARK   14  A    between atoms: _30  and  _33
REMARK   15  A    between atoms: _33  and  _34
REMARK   16  A    between atoms: _39  and  _41
REMARK   17  A    between atoms: _41  and  _42
REMARK   18  A    between atoms: _41  and  _44
REMARK   19  A    between atoms: _44  and  _45
REMARK   20  A    between atoms: _50  and  _52
REMARK   21  A    between atoms: _52  and  _53
REMARK   22  A    between atoms: _52  and  _55
REMARK   23  A    between atoms: _55  and  _56
REMARK   24  A    between atoms: _59  and  _61
REMARK   25  A    between atoms: _61  and  _62
REMARK   26  A    between atoms: _61  and  _64
REMARK   27  A    between atoms: _64  and  _65
REMARK   28  A    between atoms: _68  and  _70
REMARK   29  A    between atoms: _70  and  _71
REMARK   30  A    between atoms: _70  and  _73
REMARK   31  A    between atoms: _73  and  _74
REMARK   32  A    between atoms: _74  and  _75
REMARK   33  A    between atoms: _75  and  _76
REMARK   34  A    between atoms: _76  and  _77
REMARK   35  A    between atoms: _81  and  _83
REMARK   36  A    between atoms: _83  and  _84
REMARK   37  A    between atoms: _83  and  _86
REMARK   38  A    between atoms: _86  and  _87
REMARK   39  A    between atoms: _89  and  _91
REMARK   40  A    between atoms: _91  and  _92
REMARK   41  A    between atoms: _91  and  _94
REMARK   42  A    between atoms: _94  and  _95
REMARK   43  A    between atoms: _100  and  _101
REMARK   44  A    between atoms: _103  and  _105
REMARK   45  A    between atoms: _105  and  _106
REMARK   46  A    between atoms: _105  and  _108
REMARK   47  A    between atoms: _108  and  _109
REMARK   48  A    between atoms: _114  and  _115
REMARK   49  A    between atoms: _117  and  _119
REMARK   50  A    between atoms: _119  and  _120
REMARK   51  A    between atoms: _123  and  _125
REMARK   52  A    between atoms: _125  and  _126
REMARK   53  A    between atoms: _129  and  _131
REMARK   54  A    between atoms: _131  and  _132
REMARK   55  A    between atoms: _131  and  _134
REMARK   56  A    between atoms: _134  and  _135
REMARK   57  A    between atoms: _138  and  _140
REMARK   58  A    between atoms: _140  and  _141
REMARK   59  A    between atoms: _140  and  _143
REMARK   60  A    between atoms: _143  and  _144
REMARK   61  A    between atoms: _147  and  _149
REMARK   62  A    between atoms: _149  and  _150
REMARK   63  A    between atoms: _149  and  _152
REMARK   64  A    between atoms: _152  and  _153
REMARK   65  A    between atoms: _155  and  _157
REMARK   66  A    between atoms: _157  and  _158
REMARK   67  A    between atoms: _157  and  _160
REMARK   68  A    between atoms: _160  and  _161
REMARK   69  A    between atoms: _161  and  _280
REMARK   70  A    between atoms: _162  and  _164
REMARK   71  A    between atoms: _164  and  _165
REMARK   72  A    between atoms: _164  and  _167
REMARK   73  A    between atoms: _167  and  _168
REMARK   74  A    between atoms: _168  and  _169
REMARK   75  A    between atoms: _174  and  _176
REMARK   76  A    between atoms: _176  and  _177
REMARK   77  A    between atoms: _179  and  _181
REMARK   78  A    between atoms: _181  and  _182
REMARK   79  A    between atoms: _181  and  _184
REMARK   80  A    between atoms: _184  and  _185
REMARK   81  A    between atoms: _188  and  _190
REMARK   82  A    between atoms: _190  and  _191
REMARK   83  A    between atoms: _190  and  _193
REMARK   84  A    between atoms: _193  and  _194
REMARK   85  A    between atoms: _196  and  _198
REMARK   86  A    between atoms: _198  and  _199
REMARK   87  A    between atoms: _201  and  _203
REMARK   88  A    between atoms: _203  and  _204
REMARK   89  A    between atoms: _206  and  _208
REMARK   90  A    between atoms: _208  and  _209
REMARK   91  A    between atoms: _208  and  _211
REMARK   92  A    between atoms: _211  and  _212
REMARK   93  A    between atoms: _215  and  _217
REMARK   94  A    between atoms: _217  and  _218
REMARK   95  A    between atoms: _217  and  _220
REMARK   96  A    between atoms: _223  and  _225
REMARK   97  A    between atoms: _225  and  _226
REMARK   98  A    between atoms: _225  and  _228
REMARK   99  A    between atoms: _228  and  _229
REMARK  100  A    between atoms: _231  and  _233
REMARK  101  A    between atoms: _233  and  _234
REMARK  102  A    between atoms: _233  and  _236
REMARK  103  A    between atoms: _236  and  _237
REMARK  104  A    between atoms: _247  and  _249
REMARK  105  A    between atoms: _249  and  _250
REMARK  106  A    between atoms: _252  and  _254
REMARK  107  A    between atoms: _254  and  _255
REMARK  108  A    between atoms: _254  and  _257
REMARK  109  A    between atoms: _257  and  _258
REMARK  110  A    between atoms: _258  and  _259
REMARK  111  A    between atoms: _259  and  _260
REMARK  112  A    between atoms: _269  and  _271
REMARK  113  A    between atoms: _271  and  _272
REMARK  114  A    between atoms: _274  and  _276
REMARK  115  A    between atoms: _276  and  _277
REMARK  116  A    between atoms: _276  and  _279
REMARK  117  A    between atoms: _279  and  _280
REMARK  118  A    between atoms: _281  and  _283
REMARK  119  A    between atoms: _283  and  _284
REMARK  120  A    between atoms: _287  and  _289
REMARK  121  A    between atoms: _289  and  _290
REMARK  122  A    between atoms: _289  and  _292
REMARK  123  A    between atoms: _292  and  _293
REMARK  124  A    between atoms: _296  and  _298
REMARK  125  A    between atoms: _298  and  _299
REMARK  126  A    between atoms: _298  and  _301
REMARK  127  A    between atoms: _301  and  _302
REMARK  128  A    between atoms: _302  and  _303
REMARK  129  A    between atoms: _303  and  _304
REMARK  130  A    between atoms: _304  and  _305
REMARK  131  A    between atoms: _310  and  _311
REMARK  132  A    between atoms: _316  and  _318
REMARK  133  A    between atoms: _318  and  _319
REMARK  134  A    between atoms: _321  and  _323
REMARK  135  A    between atoms: _323  and  _324
REMARK  136  A    between atoms: _323  and  _326
REMARK  137  A    between atoms: _329  and  _331
REMARK  138  A    between atoms: _331  and  _332
REMARK  139  A    between atoms: _331  and  _334
REMARK  140  A    between atoms: _334  and  _335
REMARK  141  A    between atoms: _340  and  _341
REMARK                            x       y       z     vdW  Elec       q    Type
REMARK                         _______ _______ _______ _____ _____    ______ ____
ROOT
ATOM      1  O   HOH     1     -26.339 -15.843  12.994  0.00  0.00    +0.000 OA
ENDROOT
TORSDOF 0
REMARK  Name = ../refined-set-2016/3mhw/3mhw_pocket.pdb
REMARK  141 active torsions:
REMARK  status: ('A' for Active; 'I' for Inactive)
REMARK    1  A    between atoms: _1  and  _5
REMARK    2  A    between atoms: _5  and  _6
REMARK    3  A    between atoms: _5  and  _8
REMARK    4  A    between atoms: _8  and  _9
REMARK    5  A    between atoms: _12  and  _14
REMARK    6  A    between atoms: _14  and  _15
REMARK    7  A    between atoms: _14  and  _17
REMARK    8  A    between atoms: _17  and  _18
REMARK    9  A    between atoms: _21  and  _23
REMARK   10  A    between atoms: _23  and  _24
REMARK   11  A    between atoms: _23  and  _26
REMARK   12  A    between atoms: _28  and  _30
REMARK   13  A    between atoms: _30  and  _31
REMARK   14  A    between atoms: _30  and  _33
REMARK   15  A    between atoms: _33  and  _34
REMARK   16  A    between atoms: _39  and  _41
REMARK   17  A    between atoms: _41  and  _42
REMARK   18  A    between atoms: _41  and  _44
REMARK   19  A    between atoms: _44  and  _45
REMARK   20  A    between atoms: _50  and  _52
REMARK   21  A    between atoms: _52  and  _53
REMARK   22  A    between atoms: _52  and  _55
REMARK   23  A    between atoms: _55  and  _56
REMARK   24  A    between atoms: _59  and  _61
REMARK   25  A    between atoms: _61  and  _62
REMARK   26  A    between atoms: _61  and  _64
REMARK   27  A    between atoms: _64  and  _65
REMARK   28  A    between atoms: _68  and  _70
REMARK   29  A    between atoms: _70  and  _71
REMARK   30  A    between atoms: _70  and  _73
REMARK   31  A    between atoms: _73  and  _74
REMARK   32  A    between atoms: _74  and  _75
REMARK   33  A    between atoms: _75  and  _76
REMARK   34  A    between atoms: _76  and  _77
REMARK   35  A    between atoms: _81  and  _83
REMARK   36  A    between atoms: _83  and  _84
REMARK   37  A    between atoms: _83  and  _86
REMARK   38  A    between atoms: _86  and  _87
REMARK   39  A    between atoms: _89  and  _91
REMARK   40  A    between atoms: _91  and  _92
REMARK   41  A    between atoms: _91  and  _94
REMARK   42  A    between atoms: _94  and  _95
REMARK   43  A    between atoms: _100  and  _101
REMARK   44  A    between atoms: _103  and  _105
REMARK   45  A    between atoms: _105  and  _106
REMARK   46  A    between atoms: _105  and  _108
REMARK   47  A    between atoms: _108  and  _109
REMARK   48  A    between atoms: _114  and  _115
REMARK   49  A    between atoms: _117  and  _119
REMARK   50  A    between atoms: _119  and  _120
REMARK   51  A    between atoms: _123  and  _125
REMARK   52  A    between atoms: _125  and  _126
REMARK   53  A    between atoms: _129  and  _131
REMARK   54  A    between atoms: _131  and  _132
REMARK   55  A    between atoms: _131  and  _134
REMARK   56  A    between atoms: _134  and  _135
REMARK   57  A    between atoms: _138  and  _140
REMARK   58  A    between atoms: _140  and  _141
REMARK   59  A    between atoms: _140  and  _143
REMARK   60  A    between atoms: _143  and  _144
REMARK   61  A    between atoms: _147  and  _149
REMARK   62  A    between atoms: _149  and  _150
REMARK   63  A    between atoms: _149  and  _152
REMARK   64  A    between atoms: _152  and  _153
REMARK   65  A    between atoms: _155  and  _157
REMARK   66  A    between atoms: _157  and  _158
REMARK   67  A    between atoms: _157  and  _160
REMARK   68  A    between atoms: _160  and  _161
REMARK   69  A    between atoms: _161  and  _280
REMARK   70  A    between atoms: _162  and  _164
REMARK   71  A    between atoms: _164  and  _165
REMARK   72  A    between atoms: _164  and  _167
REMARK   73  A    between atoms: _167  and  _168
REMARK   74  A    between atoms: _168  and  _169
REMARK   75  A    between atoms: _174  and  _176
REMARK   76  A    between atoms: _176  and  _177
REMARK   77  A    between atoms: _179  and  _181
REMARK   78  A    between atoms: _181  and  _182
REMARK   79  A    between atoms: _181  and  _184
REMARK   80  A    between atoms: _184  and  _185
REMARK   81  A    between atoms: _188  and  _190
REMARK   82  A    between atoms: _190  and  _191
REMARK   83  A    between atoms: _190  and  _193
REMARK   84  A    between atoms: _193  and  _194
REMARK   85  A    between atoms: _196  and  _198
REMARK   86  A    between atoms: _198  and  _199
REMARK   87  A    between atoms: _201  and  _203
REMARK   88  A    between atoms: _203  and  _204
REMARK   89  A    between atoms: _206  and  _208
REMARK   90  A    between atoms: _208  and  _209
REMARK   91  A    between atoms: _208  and  _211
REMARK   92  A    between atoms: _211  and  _212
REMARK   93  A    between atoms: _215  and  _217
REMARK   94  A    between atoms: _217  and  _218
REMARK   95  A    between atoms: _217  and  _220
REMARK   96  A    between atoms: _223  and  _225
REMARK   97  A    between atoms: _225  and  _226
REMARK   98  A    between atoms: _225  and  _228
REMARK   99  A    between atoms: _228  and  _229
REMARK  100  A    between atoms: _231  and  _233
REMARK  101  A    between atoms: _233  and  _234
REMARK  102  A    between atoms: _233  and  _236
REMARK  103  A    between atoms: _236  and  _237
REMARK  104  A    between atoms: _247  and  _249
REMARK  105  A    between atoms: _249  and  _250
REMARK  106  A    between atoms: _252  and  _254
REMARK  107  A    between atoms: _254  and  _255
REMARK  108  A    between atoms: _254  and  _257
REMARK  109  A    between atoms: _257  and  _258
REMARK  110  A    between atoms: _258  and  _259
REMARK  111  A    between atoms: _259  and  _260
REMARK  112  A    between atoms: _269  and  _271
REMARK  113  A    between atoms: _271  and  _272
REMARK  114  A    between atoms: _274  and  _276
REMARK  115  A    between atoms: _276  and  _277
REMARK  116  A    between atoms: _276  and  _279
REMARK  117  A    between atoms: _279  and  _280
REMARK  118  A    between atoms: _281  and  _283
REMARK  119  A    between atoms: _283  and  _284
REMARK  120  A    between atoms: _287  and  _289
REMARK  121  A    between atoms: _289  and  _290
REMARK  122  A    between atoms: _289  and  _292
REMARK  123  A    between atoms: _292  and  _293
REMARK  124  A    between atoms: _296  and  _298
REMARK  125  A    between atoms: _298  and  _299
REMARK  126  A    between atoms: _298  and  _301
REMARK  127  A    between atoms: _301  and  _302
REMARK  128  A    between atoms: _302  and  _303
REMARK  129  A    between atoms: _303  and  _304
REMARK  130  A    between atoms: _304  and  _305
REMARK  131  A    between atoms: _310  and  _311
REMARK  132  A    between atoms: _316  and  _318
REMARK  133  A    between atoms: _318  and  _319
REMARK  134  A    between atoms: _321  and  _323
REMARK  135  A    between atoms: _323  and  _324
REMARK  136  A    between atoms: _323  and  _326
REMARK  137  A    between atoms: _329  and  _331
REMARK  138  A    between atoms: _331  and  _332
REMARK  139  A    between atoms: _331  and  _334
REMARK  140  A    between atoms: _334  and  _335
REMARK  141  A    between atoms: _340  and  _341
REMARK                            x       y       z     vdW  Elec       q    Type
REMARK                         _______ _______ _______ _____ _____    ______ ____
ROOT
ATOM      1  O   HOH     1     -22.998 -11.942   7.907  0.00  0.00    +0.000 OA
ENDROOT
TORSDOF 0
