REMARK  Name = ../refined-set-2016/4umc/4umc_pocket.pdb
REMARK  160 active torsions:
REMARK  status: ('A' for Active; 'I' for Inactive)
REMARK    1  A    between atoms: _2  and  _3
REMARK    2  A    between atoms: _8  and  _10
REMARK    3  A    between atoms: _10  and  _11
REMARK    4  A    between atoms: _10  and  _13
REMARK    5  A    between atoms: _13  and  _14
REMARK    6  A    between atoms: _14  and  MN_368
REMARK    7  A    between atoms: _15  and  _17
REMARK    8  A    between atoms: _17  and  _18
REMARK    9  A    between atoms: _17  and  _20
REMARK   10  A    between atoms: _20  and  _21
REMARK   11  A    between atoms: _23  and  _25
REMARK   12  A    between atoms: _25  and  _26
REMARK   13  A    between atoms: _25  and  _28
REMARK   14  A    between atoms: _28  and  _29
REMARK   15  A    between atoms: _29  and  _30
REMARK   16  A    between atoms: _30  and  _31
REMARK   17  A    between atoms: _40  and  _42
REMARK   18  A    between atoms: _42  and  _43
REMARK   19  A    between atoms: _42  and  _45
REMARK   20  A    between atoms: _45  and  _46
REMARK   21  A    between atoms: _51  and  _52
REMARK   22  A    between atoms: _54  and  _56
REMARK   23  A    between atoms: _56  and  _57
REMARK   24  A    between atoms: _56  and  _59
REMARK   25  A    between atoms: _59  and  _60
REMARK   26  A    between atoms: _60  and  _61
REMARK   27  A    between atoms: _64  and  _66
REMARK   28  A    between atoms: _66  and  _67
REMARK   29  A    between atoms: _66  and  _69
REMARK   30  A    between atoms: _69  and  _70
REMARK   31  A    between atoms: _70  and  _71
REMARK   32  A    between atoms: _71  and  _72
REMARK   33  A    between atoms: _72  and  _73
REMARK   34  A    between atoms: _78  and  _79
REMARK   35  A    between atoms: _84  and  _86
REMARK   36  A    between atoms: _86  and  _87
REMARK   37  A    between atoms: _86  and  _89
REMARK   38  A    between atoms: _89  and  _90
REMARK   39  A    between atoms: _90  and  _91
REMARK   40  A    between atoms: _91  and  _92
REMARK   41  A    between atoms: _101  and  _103
REMARK   42  A    between atoms: _103  and  _104
REMARK   43  A    between atoms: _103  and  _106
REMARK   44  A    between atoms: _106  and  _107
REMARK   45  A    between atoms: _110  and  _112
REMARK   46  A    between atoms: _112  and  _113
REMARK   47  A    between atoms: _112  and  _115
REMARK   48  A    between atoms: _115  and  _116
REMARK   49  A    between atoms: _119  and  _121
REMARK   50  A    between atoms: _121  and  _122
REMARK   51  A    between atoms: _121  and  _124
REMARK   52  A    between atoms: _124  and  _125
REMARK   53  A    between atoms: _125  and  _126
REMARK   54  A    between atoms: _129  and  _131
REMARK   55  A    between atoms: _131  and  _132
REMARK   56  A    between atoms: _135  and  _137
REMARK   57  A    between atoms: _137  and  _138
REMARK   58  A    between atoms: _137  and  _140
REMARK   59  A    between atoms: _140  and  _141
REMARK   60  A    between atoms: _144  and  _146
REMARK   61  A    between atoms: _146  and  _147
REMARK   62  A    between atoms: _149  and  _151
REMARK   63  A    between atoms: _151  and  _152
REMARK   64  A    between atoms: _155  and  _157
REMARK   65  A    between atoms: _157  and  _158
REMARK   66  A    between atoms: _157  and  _160
REMARK   67  A    between atoms: _160  and  _161
REMARK   68  A    between atoms: _161  and  _162
REMARK   69  A    between atoms: _162  and  _163
REMARK   70  A    between atoms: _172  and  _174
REMARK   71  A    between atoms: _174  and  _175
REMARK   72  A    between atoms: _174  and  _177
REMARK   73  A    between atoms: _177  and  _178
REMARK   74  A    between atoms: _181  and  _183
REMARK   75  A    between atoms: _183  and  _184
REMARK   76  A    between atoms: _183  and  _186
REMARK   77  A    between atoms: _186  and  _187
REMARK   78  A    between atoms: _190  and  _192
REMARK   79  A    between atoms: _192  and  _193
REMARK   80  A    between atoms: _192  and  _195
REMARK   81  A    between atoms: _195  and  _196
REMARK   82  A    between atoms: _196  and  _197
REMARK   83  A    between atoms: _197  and  _198
REMARK   84  A    between atoms: _198  and  _199
REMARK   85  A    between atoms: _203  and  _205
REMARK   86  A    between atoms: _205  and  _206
REMARK   87  A    between atoms: _205  and  _208
REMARK   88  A    between atoms: _208  and  _209
REMARK   89  A    between atoms: _214  and  _216
REMARK   90  A    between atoms: _216  and  _217
REMARK   91  A    between atoms: _219  and  _221
REMARK   92  A    between atoms: _221  and  _222
REMARK   93  A    between atoms: _221  and  _224
REMARK   94  A    between atoms: _224  and  _225
REMARK   95  A    between atoms: _228  and  _230
REMARK   96  A    between atoms: _230  and  _231
REMARK   97  A    between atoms: _230  and  _233
REMARK   98  A    between atoms: _233  and  _234
REMARK   99  A    between atoms: _237  and  _239
REMARK  100  A    between atoms: _239  and  _240
REMARK  101  A    between atoms: _239  and  _242
REMARK  102  A    between atoms: _242  and  _243
REMARK  103  A    between atoms: _246  and  _248
REMARK  104  A    between atoms: _248  and  _249
REMARK  105  A    between atoms: _248  and  _251
REMARK  106  A    between atoms: _251  and  _252
REMARK  107  A    between atoms: _252  and  _253
REMARK  108  A    between atoms: _253  and  _254
REMARK  109  A    between atoms: _263  and  _265
REMARK  110  A    between atoms: _265  and  _266
REMARK  111  A    between atoms: _268  and  _270
REMARK  112  A    between atoms: _270  and  _271
REMARK  113  A    between atoms: _270  and  _273
REMARK  114  A    between atoms: _273  and  _274
REMARK  115  A    between atoms: _277  and  _279
REMARK  116  A    between atoms: _279  and  _280
REMARK  117  A    between atoms: _279  and  _282
REMARK  118  A    between atoms: _282  and  _283
REMARK  119  A    between atoms: _285  and  _287
REMARK  120  A    between atoms: _287  and  _288
REMARK  121  A    between atoms: _287  and  _290
REMARK  122  A    between atoms: _290  and  _291
REMARK  123  A    between atoms: _295  and  MN_368
REMARK  124  A    between atoms: _296  and  _298
REMARK  125  A    between atoms: _298  and  _299
REMARK  126  A    between atoms: _302  and  _304
REMARK  127  A    between atoms: _304  and  _305
REMARK  128  A    between atoms: _304  and  _307
REMARK  129  A    between atoms: _307  and  _308
REMARK  130  A    between atoms: _313  and  _315
REMARK  131  A    between atoms: _315  and  _316
REMARK  132  A    between atoms: _315  and  _318
REMARK  133  A    between atoms: _318  and  _319
REMARK  134  A    between atoms: _319  and  _320
REMARK  135  A    between atoms: _322  and  _324
REMARK  136  A    between atoms: _324  and  _325
REMARK  137  A    between atoms: _324  and  _327
REMARK  138  A    between atoms: _327  and  _328
REMARK  139  A    between atoms: _328  and  _329
REMARK  140  A    between atoms: _329  and  _331
REMARK  141  A    between atoms: _331  and  MN_368
REMARK  142  A    between atoms: _332  and  _334
REMARK  143  A    between atoms: _334  and  _335
REMARK  144  A    between atoms: _334  and  _337
REMARK  145  A    between atoms: _337  and  _338
REMARK  146  A    between atoms: _340  and  _342
REMARK  147  A    between atoms: _342  and  _343
REMARK  148  A    between atoms: _342  and  _345
REMARK  149  A    between atoms: _345  and  _346
REMARK  150  A    between atoms: _349  and  _351
REMARK  151  A    between atoms: _351  and  _352
REMARK  152  A    between atoms: _351  and  _354
REMARK  153  A    between atoms: _354  and  _355
REMARK  154  A    between atoms: _355  and  _357
REMARK  155  A    between atoms: _357  and  MN_368
REMARK  156  A    between atoms: _358  and  _360
REMARK  157  A    between atoms: _360  and  _361
REMARK  158  A    between atoms: _360  and  _363
REMARK  159  A    between atoms: _363  and  _364
REMARK  160  A    between atoms: _364  and  _365
REMARK                            x       y       z     vdW  Elec       q    Type
REMARK                         _______ _______ _______ _____ _____    ______ ____
ROOT
ATOM      1 MN   UNK A   1     -29.061 -16.164 -40.229  0.00  0.00    +0.000 Mn
ENDROOT
BRANCH   1   2
ATOM      2  N   UNK A   1     -27.793 -18.126 -40.059  0.00  0.00    +0.000 N 
ATOM      3  C   UNK A   1     -27.948 -19.085 -39.165  0.00  0.00    +0.000 A 
ATOM      4  N   UNK A   1     -27.417 -20.193 -39.647  0.00  0.00    +0.000 NA
ATOM      5  C   UNK A   1     -26.889 -19.942 -40.895  0.00  0.00    +0.000 A 
ATOM      6  C   UNK A   1     -27.137 -18.637 -41.151  0.00  0.00    +0.000 A 
BRANCH   5   7
ATOM      7  C   UNK A   1     -26.222 -20.999 -41.721  0.00  0.00    +0.000 C 
BRANCH   7   8
ATOM      8  C   UNK A   1     -27.073 -21.470 -42.901  0.00  0.00    +0.000 C 
BRANCH   8   9
ATOM      9  C   UNK A   1     -26.338 -22.480 -43.777  0.00  0.00    +0.000 C 
ATOM     10  N   ALA A   3     -25.082 -22.783 -43.471  0.00  0.00    +0.000 N 
ATOM     11  H   ALA A   3     -24.643 -22.424 -42.600  0.00  0.00    +0.000 HD
ATOM     12  O   UNK A   1     -26.901 -22.961 -44.756  0.00  0.00    +0.000 OA
BRANCH  10  13
ATOM     13  CA  ALA A   3     -24.339 -23.630 -44.387  0.00  0.00    +0.000 C 
ATOM     14  CB  ALA A   3     -22.822 -23.550 -44.114  0.00  0.00    +0.000 C 
BRANCH  13  15
ATOM     15  C   ALA A   3     -24.834 -25.074 -44.356  0.00  0.00    +0.000 C 
ATOM     16  N   ASN A   4     -25.599 -25.459 -43.338  0.00  0.00    +0.000 N 
ATOM     17  H   ASN A   4     -25.793 -24.806 -42.552  0.00  0.00    +0.000 HD
ATOM     18  O   ALA A   3     -24.519 -25.842 -45.272  0.00  0.00    +0.000 OA
BRANCH  16  19
ATOM     19  CA  ASN A   4     -26.168 -26.815 -43.332  0.00  0.00    +0.000 C 
BRANCH  19  20
ATOM     20  C   ASN A   4     -27.401 -26.980 -44.255  0.00  0.00    +0.000 C 
ATOM     21  O   ASN A   4     -27.734 -28.089 -44.675  0.00  0.00    +0.000 OA
ENDBRANCH  19  20
BRANCH  19  22
ATOM     22  CB  ASN A   4     -26.479 -27.265 -41.908  0.00  0.00    +0.000 C 
BRANCH  22  23
ATOM     23  CG  ASN A   4     -25.280 -27.826 -41.196  0.00  0.00    +0.000 C 
ATOM     24  ND2 ASN A   4     -25.284 -27.747 -39.871  0.00  0.00    +0.000 N 
ATOM     25 HD21 ASN A   4     -24.468 -28.094 -39.327  0.00  0.00    +0.000 HD
ATOM     26 HD22 ASN A   4     -26.103 -27.338 -39.377  0.00  0.00    +0.000 HD
ATOM     27  OD1 ASN A   4     -24.324 -28.307 -41.836  0.00  0.00    +0.000 OA
ENDBRANCH  22  23
ENDBRANCH  19  22
ENDBRANCH  16  19
ENDBRANCH  13  15
ENDBRANCH  10  13
ENDBRANCH   8   9
BRANCH   8  28
ATOM     28  N   UNK A   1     -28.369 -21.945 -42.429  0.00  0.00    +0.000 N 
ATOM     29  C   UNK A   1     -28.500 -23.026 -41.668  0.00  0.00    +0.000 C 
ATOM     30  O   UNK A   1     -27.570 -23.779 -41.401  0.00  0.00    +0.000 OA
ATOM     31  H   UNK A   1     -29.223 -21.417 -42.699  0.00  0.00    +0.000 HD
BRANCH  29  32
ATOM     32  C   UNK A   1     -29.908 -23.287 -41.140  0.00  0.00    +0.000 C 
BRANCH  32  33
ATOM     33  N   UNK A   1     -29.998 -24.383 -40.180  0.00  0.00    +0.000 NA
ATOM     34  H   UNK A   1     -29.814 -24.177 -39.177  0.00  0.00    +0.000 HD
ENDBRANCH  32  33
BRANCH  32  35
ATOM     35  C   UNK A   1     -30.502 -22.005 -40.556  0.00  0.00    +0.000 C 
BRANCH  35  36
ATOM     36  O   UNK A   1     -31.140 -21.246 -41.564  0.00  0.00    +0.000 OA
ATOM     37  H   UNK A   1     -31.517 -20.422 -41.166  0.00  0.00    +0.000 HD
ENDBRANCH  35  36
ENDBRANCH  32  35
ENDBRANCH  29  32
ENDBRANCH   8  28
ENDBRANCH   7   8
ENDBRANCH   5   7
ENDBRANCH   1   2
BRANCH   1  38
ATOM     38  S   UNK A   2     -30.627 -14.036 -40.194  0.00  0.00    +0.000 S 
BRANCH  38  39
ATOM     39  C   UNK A   2     -32.297 -14.613 -39.822  0.00  0.00    +0.000 C 
BRANCH  39  40
ATOM     40  C   UNK A   2     -32.627 -14.730 -38.342  0.00  0.00    +0.000 C 
BRANCH  40  43
ATOM     41  C   UNK A   1     -34.539 -15.108 -36.918  0.00  0.00    +0.000 C 
ATOM     42  O   UNK A   1     -33.812 -15.249 -35.941  0.00  0.00    +0.000 OA
ATOM     43  N   UNK A   2     -34.057 -14.925 -38.130  0.00  0.00    +0.000 N 
ATOM     44  H   UNK A   2     -34.703 -14.919 -38.945  0.00  0.00    +0.000 HD
BRANCH  41  49
ATOM     45  N   UNK A   1     -36.568 -15.902 -35.666  0.00  0.00    +0.000 NA
ATOM     46  C   UNK A   1     -37.492 -15.100 -34.862  0.00  0.00    +0.000 C 
ATOM     47  C   UNK A   1     -37.823 -13.958 -35.789  0.00  0.00    +0.000 C 
ATOM     48  C   UNK A   1     -36.576 -13.764 -36.596  0.00  0.00    +0.000 C 
ATOM     49  C   UNK A   1     -36.052 -15.171 -36.814  0.00  0.00    +0.000 C 
ENDBRANCH  41  49
ENDBRANCH  40  43
BRANCH  40  50
ATOM     50  C   UNK A   2     -32.290 -13.460 -37.577  0.00  0.00    +0.000 C 
ATOM     51  O   UNK A   2     -31.320 -13.447 -36.827  0.00  0.00    +0.000 OA
ATOM     52  N   ALA A   3     -33.113 -12.414 -37.748  0.00  0.00    +0.000 N 
ATOM     53  H   ALA A   3     -33.921 -12.513 -38.396  0.00  0.00    +0.000 HD
BRANCH  52  54
ATOM     54  CA  ALA A   3     -32.917 -11.148 -37.061  0.00  0.00    +0.000 C 
BRANCH  54  55
ATOM     55  CB  ALA A   3     -34.236 -10.564 -36.671  0.00  0.00    +0.000 C 
ATOM     56  O   ALA A   3     -35.198 -10.734 -37.383  0.00  0.00    +0.000 OA
ENDBRANCH  54  55
BRANCH  54  57
ATOM     57  C   ALA A   3     -32.230 -10.138 -37.970  0.00  0.00    +0.000 C 
BRANCH  57  58
ATOM     58  O   ALA A   3     -32.940  -9.976 -39.192  0.00  0.00    +0.000 OA
ATOM     59  H   ALA A   3     -32.986 -10.845 -39.664  0.00  0.00    +0.000 HD
ENDBRANCH  57  58
ENDBRANCH  54  57
ENDBRANCH  52  54
ENDBRANCH  40  50
ENDBRANCH  39  40
ENDBRANCH  38  39
ENDBRANCH   1  38
BRANCH   1  60
ATOM     60  O   UNK A   1     -30.606 -17.294 -39.443  0.00  0.00    +0.000 OA
BRANCH  60  61
ATOM     61  C   UNK A   1     -31.232 -18.293 -39.882  0.00  0.00    +0.000 C 
ATOM     62  O   UNK A   1     -31.052 -18.764 -41.031  0.00  0.00    +0.000 OA
BRANCH  61  63
ATOM     63  C   UNK A   1     -32.198 -18.971 -38.913  0.00  0.00    +0.000 C 
BRANCH  63  64
ATOM     64  C   UNK A   1     -33.494 -19.503 -39.547  0.00  0.00    +0.000 C 
BRANCH  64  65
ATOM     65  C   UNK A   1     -34.458 -20.074 -38.513  0.00  0.00    +0.000 C 
BRANCH  65  66
ATOM     66  C   UNK A   1     -35.919 -20.087 -39.001  0.00  0.00    +0.000 C 
ATOM     67  O   UNK A   1     -36.251 -20.643 -40.065  0.00  0.00    +0.000 OA
ENDBRANCH  65  66
BRANCH  65  68
ATOM     68  N   UNK A   1     -34.050 -21.417 -38.096  0.00  0.00    +0.000 NA
ATOM     69  H   UNK A   1     -33.668 -22.072 -38.807  0.00  0.00    +0.000 HD
ENDBRANCH  65  68
ENDBRANCH  64  65
ENDBRANCH  63  64
ENDBRANCH  61  63
ENDBRANCH  60  61
ENDBRANCH   1  60
BRANCH   1  70
ATOM     70  O   UNK A   1     -28.698 -15.781 -42.149  0.00  0.00    +0.000 OA
BRANCH  70  71
ATOM     71  C   UNK A   1     -29.330 -15.444 -43.164  0.00  0.00    +0.000 C 
ATOM     72  O   UNK A   1     -28.850 -14.838 -44.131  0.00  0.00    +0.000 OA
BRANCH  71  73
ATOM     73  C   UNK A   1     -30.803 -15.846 -43.246  0.00  0.00    +0.000 C 
BRANCH  73  74
ATOM     74  C   UNK A   1     -31.672 -14.824 -44.021  0.00  0.00    +0.000 C 
BRANCH  74  75
ATOM     75  N   UNK A   1     -31.598 -13.488 -43.422  0.00  0.00    +0.000 N 
ATOM     76  H   UNK A   1     -31.048 -13.336 -42.553  0.00  0.00    +0.000 HD
ATOM     77  C   UNK A   1     -32.236 -12.471 -43.993  0.00  0.00    +0.000 C 
ATOM     78  O   UNK A   1     -32.943 -12.616 -44.984  0.00  0.00    +0.000 OA
BRANCH  77  79
ATOM     79  C   UNK A   1     -32.045 -11.080 -43.391  0.00  0.00    +0.000 C 
BRANCH  79  80
ATOM     80  N   UNK A   1     -33.336 -10.405 -43.341  0.00  0.00    +0.000 NA
ATOM     81  H   UNK A   1     -34.006 -10.699 -42.602  0.00  0.00    +0.000 HD
ENDBRANCH  79  80
BRANCH  79  82
ATOM     82  C   UNK A   1     -31.348 -11.141 -42.017  0.00  0.00    +0.000 C 
ATOM     83  C   UNK A   1     -30.790  -9.781 -41.655  0.00  0.00    +0.000 C 
BRANCH  82  84
ATOM     84  O   UNK A   1     -32.281 -11.543 -41.011  0.00  0.00    +0.000 OA
ATOM     85  H   UNK A   1     -33.023 -10.889 -40.971  0.00  0.00    +0.000 HD
ENDBRANCH  82  84
ENDBRANCH  79  82
ENDBRANCH  77  79
ENDBRANCH  74  75
BRANCH  74  86
ATOM     86  C   UNK A   1     -33.133 -15.309 -44.065  0.00  0.00    +0.000 C 
ATOM     87  O   UNK A   2     -33.943 -15.024 -43.171  0.00  0.00    +0.000 OA
ENDBRANCH  74  86
ENDBRANCH  73  74
ENDBRANCH  71  73
ENDBRANCH  70  71
ENDBRANCH   1  70
TORSDOF 42
REMARK  Name = ../refined-set-2016/4umc/4umc_pocket.pdb
REMARK  160 active torsions:
REMARK  status: ('A' for Active; 'I' for Inactive)
REMARK    1  A    between atoms: _2  and  _3
REMARK    2  A    between atoms: _8  and  _10
REMARK    3  A    between atoms: _10  and  _11
REMARK    4  A    between atoms: _10  and  _13
REMARK    5  A    between atoms: _13  and  _14
REMARK    6  A    between atoms: _14  and  MN_368
REMARK    7  A    between atoms: _15  and  _17
REMARK    8  A    between atoms: _17  and  _18
REMARK    9  A    between atoms: _17  and  _20
REMARK   10  A    between atoms: _20  and  _21
REMARK   11  A    between atoms: _23  and  _25
REMARK   12  A    between atoms: _25  and  _26
REMARK   13  A    between atoms: _25  and  _28
REMARK   14  A    between atoms: _28  and  _29
REMARK   15  A    between atoms: _29  and  _30
REMARK   16  A    between atoms: _30  and  _31
REMARK   17  A    between atoms: _40  and  _42
REMARK   18  A    between atoms: _42  and  _43
REMARK   19  A    between atoms: _42  and  _45
REMARK   20  A    between atoms: _45  and  _46
REMARK   21  A    between atoms: _51  and  _52
REMARK   22  A    between atoms: _54  and  _56
REMARK   23  A    between atoms: _56  and  _57
REMARK   24  A    between atoms: _56  and  _59
REMARK   25  A    between atoms: _59  and  _60
REMARK   26  A    between atoms: _60  and  _61
REMARK   27  A    between atoms: _64  and  _66
REMARK   28  A    between atoms: _66  and  _67
REMARK   29  A    between atoms: _66  and  _69
REMARK   30  A    between atoms: _69  and  _70
REMARK   31  A    between atoms: _70  and  _71
REMARK   32  A    between atoms: _71  and  _72
REMARK   33  A    between atoms: _72  and  _73
REMARK   34  A    between atoms: _78  and  _79
REMARK   35  A    between atoms: _84  and  _86
REMARK   36  A    between atoms: _86  and  _87
REMARK   37  A    between atoms: _86  and  _89
REMARK   38  A    between atoms: _89  and  _90
REMARK   39  A    between atoms: _90  and  _91
REMARK   40  A    between atoms: _91  and  _92
REMARK   41  A    between atoms: _101  and  _103
REMARK   42  A    between atoms: _103  and  _104
REMARK   43  A    between atoms: _103  and  _106
REMARK   44  A    between atoms: _106  and  _107
REMARK   45  A    between atoms: _110  and  _112
REMARK   46  A    between atoms: _112  and  _113
REMARK   47  A    between atoms: _112  and  _115
REMARK   48  A    between atoms: _115  and  _116
REMARK   49  A    between atoms: _119  and  _121
REMARK   50  A    between atoms: _121  and  _122
REMARK   51  A    between atoms: _121  and  _124
REMARK   52  A    between atoms: _124  and  _125
REMARK   53  A    between atoms: _125  and  _126
REMARK   54  A    between atoms: _129  and  _131
REMARK   55  A    between atoms: _131  and  _132
REMARK   56  A    between atoms: _135  and  _137
REMARK   57  A    between atoms: _137  and  _138
REMARK   58  A    between atoms: _137  and  _140
REMARK   59  A    between atoms: _140  and  _141
REMARK   60  A    between atoms: _144  and  _146
REMARK   61  A    between atoms: _146  and  _147
REMARK   62  A    between atoms: _149  and  _151
REMARK   63  A    between atoms: _151  and  _152
REMARK   64  A    between atoms: _155  and  _157
REMARK   65  A    between atoms: _157  and  _158
REMARK   66  A    between atoms: _157  and  _160
REMARK   67  A    between atoms: _160  and  _161
REMARK   68  A    between atoms: _161  and  _162
REMARK   69  A    between atoms: _162  and  _163
REMARK   70  A    between atoms: _172  and  _174
REMARK   71  A    between atoms: _174  and  _175
REMARK   72  A    between atoms: _174  and  _177
REMARK   73  A    between atoms: _177  and  _178
REMARK   74  A    between atoms: _181  and  _183
REMARK   75  A    between atoms: _183  and  _184
REMARK   76  A    between atoms: _183  and  _186
REMARK   77  A    between atoms: _186  and  _187
REMARK   78  A    between atoms: _190  and  _192
REMARK   79  A    between atoms: _192  and  _193
REMARK   80  A    between atoms: _192  and  _195
REMARK   81  A    between atoms: _195  and  _196
REMARK   82  A    between atoms: _196  and  _197
REMARK   83  A    between atoms: _197  and  _198
REMARK   84  A    between atoms: _198  and  _199
REMARK   85  A    between atoms: _203  and  _205
REMARK   86  A    between atoms: _205  and  _206
REMARK   87  A    between atoms: _205  and  _208
REMARK   88  A    between atoms: _208  and  _209
REMARK   89  A    between atoms: _214  and  _216
REMARK   90  A    between atoms: _216  and  _217
REMARK   91  A    between atoms: _219  and  _221
REMARK   92  A    between atoms: _221  and  _222
REMARK   93  A    between atoms: _221  and  _224
REMARK   94  A    between atoms: _224  and  _225
REMARK   95  A    between atoms: _228  and  _230
REMARK   96  A    between atoms: _230  and  _231
REMARK   97  A    between atoms: _230  and  _233
REMARK   98  A    between atoms: _233  and  _234
REMARK   99  A    between atoms: _237  and  _239
REMARK  100  A    between atoms: _239  and  _240
REMARK  101  A    between atoms: _239  and  _242
REMARK  102  A    between atoms: _242  and  _243
REMARK  103  A    between atoms: _246  and  _248
REMARK  104  A    between atoms: _248  and  _249
REMARK  105  A    between atoms: _248  and  _251
REMARK  106  A    between atoms: _251  and  _252
REMARK  107  A    between atoms: _252  and  _253
REMARK  108  A    between atoms: _253  and  _254
REMARK  109  A    between atoms: _263  and  _265
REMARK  110  A    between atoms: _265  and  _266
REMARK  111  A    between atoms: _268  and  _270
REMARK  112  A    between atoms: _270  and  _271
REMARK  113  A    between atoms: _270  and  _273
REMARK  114  A    between atoms: _273  and  _274
REMARK  115  A    between atoms: _277  and  _279
REMARK  116  A    between atoms: _279  and  _280
REMARK  117  A    between atoms: _279  and  _282
REMARK  118  A    between atoms: _282  and  _283
REMARK  119  A    between atoms: _285  and  _287
REMARK  120  A    between atoms: _287  and  _288
REMARK  121  A    between atoms: _287  and  _290
REMARK  122  A    between atoms: _290  and  _291
REMARK  123  A    between atoms: _295  and  MN_368
REMARK  124  A    between atoms: _296  and  _298
REMARK  125  A    between atoms: _298  and  _299
REMARK  126  A    between atoms: _302  and  _304
REMARK  127  A    between atoms: _304  and  _305
REMARK  128  A    between atoms: _304  and  _307
REMARK  129  A    between atoms: _307  and  _308
REMARK  130  A    between atoms: _313  and  _315
REMARK  131  A    between atoms: _315  and  _316
REMARK  132  A    between atoms: _315  and  _318
REMARK  133  A    between atoms: _318  and  _319
REMARK  134  A    between atoms: _319  and  _320
REMARK  135  A    between atoms: _322  and  _324
REMARK  136  A    between atoms: _324  and  _325
REMARK  137  A    between atoms: _324  and  _327
REMARK  138  A    between atoms: _327  and  _328
REMARK  139  A    between atoms: _328  and  _329
REMARK  140  A    between atoms: _329  and  _331
REMARK  141  A    between atoms: _331  and  MN_368
REMARK  142  A    between atoms: _332  and  _334
REMARK  143  A    between atoms: _334  and  _335
REMARK  144  A    between atoms: _334  and  _337
REMARK  145  A    between atoms: _337  and  _338
REMARK  146  A    between atoms: _340  and  _342
REMARK  147  A    between atoms: _342  and  _343
REMARK  148  A    between atoms: _342  and  _345
REMARK  149  A    between atoms: _345  and  _346
REMARK  150  A    between atoms: _349  and  _351
REMARK  151  A    between atoms: _351  and  _352
REMARK  152  A    between atoms: _351  and  _354
REMARK  153  A    between atoms: _354  and  _355
REMARK  154  A    between atoms: _355  and  _357
REMARK  155  A    between atoms: _357  and  MN_368
REMARK  156  A    between atoms: _358  and  _360
REMARK  157  A    between atoms: _360  and  _361
REMARK  158  A    between atoms: _360  and  _363
REMARK  159  A    between atoms: _363  and  _364
REMARK  160  A    between atoms: _364  and  _365
REMARK                            x       y       z     vdW  Elec       q    Type
REMARK                         _______ _______ _______ _____ _____    ______ ____
ROOT
ATOM      1  NE  ARG A   1     -32.084 -17.243 -35.110  0.00  0.00    -0.265 N 
ATOM      2  HE  ARG A   1     -32.676 -16.392 -35.191  0.00  0.00    +0.259 HD
ATOM      3  CZ  ARG A   1     -30.836 -17.161 -35.594  0.00  0.00    +0.342 C 
ATOM      4  NH2 ARG A   1     -30.009 -18.189 -35.586  0.00  0.00    -0.292 N 
ATOM      5 HH21 ARG A   1     -30.318 -19.102 -35.195  0.00  0.00    +0.255 HD
ATOM      6 HH22 ARG A   1     -29.048 -18.086 -35.971  0.00  0.00    +0.255 HD
ATOM      7  NH1 ARG A   1     -30.448 -16.024 -36.129  0.00  0.00    -0.292 N 
ATOM      8 HH11 ARG A   1     -31.103 -15.218 -36.169  0.00  0.00    +0.255 HD
ATOM      9 HH12 ARG A   1     -29.486 -15.931 -36.512  0.00  0.00    +0.255 HD
ENDROOT
BRANCH   1  10
ATOM     10  CD  ARG A   1     -32.697 -18.419 -34.476  0.00  0.00    +0.174 C 
BRANCH  10  11
ATOM     11  CG  ARG A   1     -32.914 -18.160 -32.997  0.00  0.00    +0.045 C 
BRANCH  11  12
ATOM     12  CB  ARG A   1     -33.654 -16.869 -32.773  0.00  0.00    +0.029 C 
BRANCH  12  13
ATOM     13  CA  ARG A   1     -33.915 -16.517 -31.307  0.00  0.00    +0.133 C 
BRANCH  13  14
ATOM     14  N   ARG A   1     -34.949 -17.337 -30.710  0.00  0.00    -0.239 NA
ATOM     15  H   ARG A   1     -35.510 -17.963 -31.323  0.00  0.00    +0.142 HD
ENDBRANCH  13  14
BRANCH  13  16
ATOM     16  C   ARG A   1     -34.403 -15.092 -31.290  0.00  0.00    +0.224 C 
ATOM     17  O   ARG A   1     -35.375 -14.755 -31.977  0.00  0.00    -0.287 OA
ENDBRANCH  13  16
ENDBRANCH  12  13
ENDBRANCH  11  12
ENDBRANCH  10  11
ENDBRANCH   1  10
TORSDOF 6
REMARK  Name = ../refined-set-2016/4umc/4umc_pocket.pdb
REMARK  160 active torsions:
REMARK  status: ('A' for Active; 'I' for Inactive)
REMARK    1  A    between atoms: _2  and  _3
REMARK    2  A    between atoms: _8  and  _10
REMARK    3  A    between atoms: _10  and  _11
REMARK    4  A    between atoms: _10  and  _13
REMARK    5  A    between atoms: _13  and  _14
REMARK    6  A    between atoms: _14  and  MN_368
REMARK    7  A    between atoms: _15  and  _17
REMARK    8  A    between atoms: _17  and  _18
REMARK    9  A    between atoms: _17  and  _20
REMARK   10  A    between atoms: _20  and  _21
REMARK   11  A    between atoms: _23  and  _25
REMARK   12  A    between atoms: _25  and  _26
REMARK   13  A    between atoms: _25  and  _28
REMARK   14  A    between atoms: _28  and  _29
REMARK   15  A    between atoms: _29  and  _30
REMARK   16  A    between atoms: _30  and  _31
REMARK   17  A    between atoms: _40  and  _42
REMARK   18  A    between atoms: _42  and  _43
REMARK   19  A    between atoms: _42  and  _45
REMARK   20  A    between atoms: _45  and  _46
REMARK   21  A    between atoms: _51  and  _52
REMARK   22  A    between atoms: _54  and  _56
REMARK   23  A    between atoms: _56  and  _57
REMARK   24  A    between atoms: _56  and  _59
REMARK   25  A    between atoms: _59  and  _60
REMARK   26  A    between atoms: _60  and  _61
REMARK   27  A    between atoms: _64  and  _66
REMARK   28  A    between atoms: _66  and  _67
REMARK   29  A    between atoms: _66  and  _69
REMARK   30  A    between atoms: _69  and  _70
REMARK   31  A    between atoms: _70  and  _71
REMARK   32  A    between atoms: _71  and  _72
REMARK   33  A    between atoms: _72  and  _73
REMARK   34  A    between atoms: _78  and  _79
REMARK   35  A    between atoms: _84  and  _86
REMARK   36  A    between atoms: _86  and  _87
REMARK   37  A    between atoms: _86  and  _89
REMARK   38  A    between atoms: _89  and  _90
REMARK   39  A    between atoms: _90  and  _91
REMARK   40  A    between atoms: _91  and  _92
REMARK   41  A    between atoms: _101  and  _103
REMARK   42  A    between atoms: _103  and  _104
REMARK   43  A    between atoms: _103  and  _106
REMARK   44  A    between atoms: _106  and  _107
REMARK   45  A    between atoms: _110  and  _112
REMARK   46  A    between atoms: _112  and  _113
REMARK   47  A    between atoms: _112  and  _115
REMARK   48  A    between atoms: _115  and  _116
REMARK   49  A    between atoms: _119  and  _121
REMARK   50  A    between atoms: _121  and  _122
REMARK   51  A    between atoms: _121  and  _124
REMARK   52  A    between atoms: _124  and  _125
REMARK   53  A    between atoms: _125  and  _126
REMARK   54  A    between atoms: _129  and  _131
REMARK   55  A    between atoms: _131  and  _132
REMARK   56  A    between atoms: _135  and  _137
REMARK   57  A    between atoms: _137  and  _138
REMARK   58  A    between atoms: _137  and  _140
REMARK   59  A    between atoms: _140  and  _141
REMARK   60  A    between atoms: _144  and  _146
REMARK   61  A    between atoms: _146  and  _147
REMARK   62  A    between atoms: _149  and  _151
REMARK   63  A    between atoms: _151  and  _152
REMARK   64  A    between atoms: _155  and  _157
REMARK   65  A    between atoms: _157  and  _158
REMARK   66  A    between atoms: _157  and  _160
REMARK   67  A    between atoms: _160  and  _161
REMARK   68  A    between atoms: _161  and  _162
REMARK   69  A    between atoms: _162  and  _163
REMARK   70  A    between atoms: _172  and  _174
REMARK   71  A    between atoms: _174  and  _175
REMARK   72  A    between atoms: _174  and  _177
REMARK   73  A    between atoms: _177  and  _178
REMARK   74  A    between atoms: _181  and  _183
REMARK   75  A    between atoms: _183  and  _184
REMARK   76  A    between atoms: _183  and  _186
REMARK   77  A    between atoms: _186  and  _187
REMARK   78  A    between atoms: _190  and  _192
REMARK   79  A    between atoms: _192  and  _193
REMARK   80  A    between atoms: _192  and  _195
REMARK   81  A    between atoms: _195  and  _196
REMARK   82  A    between atoms: _196  and  _197
REMARK   83  A    between atoms: _197  and  _198
REMARK   84  A    between atoms: _198  and  _199
REMARK   85  A    between atoms: _203  and  _205
REMARK   86  A    between atoms: _205  and  _206
REMARK   87  A    between atoms: _205  and  _208
REMARK   88  A    between atoms: _208  and  _209
REMARK   89  A    between atoms: _214  and  _216
REMARK   90  A    between atoms: _216  and  _217
REMARK   91  A    between atoms: _219  and  _221
REMARK   92  A    between atoms: _221  and  _222
REMARK   93  A    between atoms: _221  and  _224
REMARK   94  A    between atoms: _224  and  _225
REMARK   95  A    between atoms: _228  and  _230
REMARK   96  A    between atoms: _230  and  _231
REMARK   97  A    between atoms: _230  and  _233
REMARK   98  A    between atoms: _233  and  _234
REMARK   99  A    between atoms: _237  and  _239
REMARK  100  A    between atoms: _239  and  _240
REMARK  101  A    between atoms: _239  and  _242
REMARK  102  A    between atoms: _242  and  _243
REMARK  103  A    between atoms: _246  and  _248
REMARK  104  A    between atoms: _248  and  _249
REMARK  105  A    between atoms: _248  and  _251
REMARK  106  A    between atoms: _251  and  _252
REMARK  107  A    between atoms: _252  and  _253
REMARK  108  A    between atoms: _253  and  _254
REMARK  109  A    between atoms: _263  and  _265
REMARK  110  A    between atoms: _265  and  _266
REMARK  111  A    between atoms: _268  and  _270
REMARK  112  A    between atoms: _270  and  _271
REMARK  113  A    between atoms: _270  and  _273
REMARK  114  A    between atoms: _273  and  _274
REMARK  115  A    between atoms: _277  and  _279
REMARK  116  A    between atoms: _279  and  _280
REMARK  117  A    between atoms: _279  and  _282
REMARK  118  A    between atoms: _282  and  _283
REMARK  119  A    between atoms: _285  and  _287
REMARK  120  A    between atoms: _287  and  _288
REMARK  121  A    between atoms: _287  and  _290
REMARK  122  A    between atoms: _290  and  _291
REMARK  123  A    between atoms: _295  and  MN_368
REMARK  124  A    between atoms: _296  and  _298
REMARK  125  A    between atoms: _298  and  _299
REMARK  126  A    between atoms: _302  and  _304
REMARK  127  A    between atoms: _304  and  _305
REMARK  128  A    between atoms: _304  and  _307
REMARK  129  A    between atoms: _307  and  _308
REMARK  130  A    between atoms: _313  and  _315
REMARK  131  A    between atoms: _315  and  _316
REMARK  132  A    between atoms: _315  and  _318
REMARK  133  A    between atoms: _318  and  _319
REMARK  134  A    between atoms: _319  and  _320
REMARK  135  A    between atoms: _322  and  _324
REMARK  136  A    between atoms: _324  and  _325
REMARK  137  A    between atoms: _324  and  _327
REMARK  138  A    between atoms: _327  and  _328
REMARK  139  A    between atoms: _328  and  _329
REMARK  140  A    between atoms: _329  and  _331
REMARK  141  A    between atoms: _331  and  MN_368
REMARK  142  A    between atoms: _332  and  _334
REMARK  143  A    between atoms: _334  and  _335
REMARK  144  A    between atoms: _334  and  _337
REMARK  145  A    between atoms: _337  and  _338
REMARK  146  A    between atoms: _340  and  _342
REMARK  147  A    between atoms: _342  and  _343
REMARK  148  A    between atoms: _342  and  _345
REMARK  149  A    between atoms: _345  and  _346
REMARK  150  A    between atoms: _349  and  _351
REMARK  151  A    between atoms: _351  and  _352
REMARK  152  A    between atoms: _351  and  _354
REMARK  153  A    between atoms: _354  and  _355
REMARK  154  A    between atoms: _355  and  _357
REMARK  155  A    between atoms: _357  and  MN_368
REMARK  156  A    between atoms: _358  and  _360
REMARK  157  A    between atoms: _360  and  _361
REMARK  158  A    between atoms: _360  and  _363
REMARK  159  A    between atoms: _363  and  _364
REMARK  160  A    between atoms: _364  and  _365
REMARK                            x       y       z     vdW  Elec       q    Type
REMARK                         _______ _______ _______ _____ _____    ______ ____
ROOT
ATOM      1  CG  TYR A   1     -29.817 -13.789 -33.429  0.00  0.00    -0.020 A 
ATOM      2  CD2 TYR A   1     -30.407 -14.679 -32.506  0.00  0.00    -0.001 A 
ATOM      3  CE2 TYR A   1     -29.839 -15.930 -32.228  0.00  0.00    +0.036 A 
ATOM      4  CZ  TYR A   1     -28.669 -16.287 -32.860  0.00  0.00    +0.134 A 
ATOM      5  CE1 TYR A   1     -28.061 -15.428 -33.751  0.00  0.00    +0.036 A 
ATOM      6  CD1 TYR A   1     -28.628 -14.194 -34.034  0.00  0.00    -0.001 A 
ENDROOT
BRANCH   4   7
ATOM      7  OH  TYR A   1     -28.043 -17.484 -32.610  0.00  0.00    -0.506 OA
ATOM      8  HH  TYR A   1     -27.961 -17.995 -33.454  0.00  0.00    +0.292 HD
ENDBRANCH   4   7
BRANCH   1   9
ATOM      9  CB  TYR A   1     -30.458 -12.450 -33.781  0.00  0.00    +0.051 C 
BRANCH   9  10
ATOM     10  CA  TYR A   1     -30.984 -11.662 -32.596  0.00  0.00    +0.137 C 
BRANCH  10  11
ATOM     11  N   TYR A   1     -32.294 -12.188 -32.155  0.00  0.00    -0.239 NA
ATOM     12  H   TYR A   1     -32.920 -12.628 -32.859  0.00  0.00    +0.142 HD
ENDBRANCH  10  11
BRANCH  10  13
ATOM     13  C   TYR A   1     -31.009 -10.167 -32.934  0.00  0.00    +0.224 C 
ATOM     14  O   TYR A   1     -31.697  -9.737 -33.859  0.00  0.00    -0.287 OA
ENDBRANCH  10  13
ENDBRANCH   9  10
ENDBRANCH   1   9
TORSDOF 5
REMARK  Name = ../refined-set-2016/4umc/4umc_pocket.pdb
REMARK  160 active torsions:
REMARK  status: ('A' for Active; 'I' for Inactive)
REMARK    1  A    between atoms: _2  and  _3
REMARK    2  A    between atoms: _8  and  _10
REMARK    3  A    between atoms: _10  and  _11
REMARK    4  A    between atoms: _10  and  _13
REMARK    5  A    between atoms: _13  and  _14
REMARK    6  A    between atoms: _14  and  MN_368
REMARK    7  A    between atoms: _15  and  _17
REMARK    8  A    between atoms: _17  and  _18
REMARK    9  A    between atoms: _17  and  _20
REMARK   10  A    between atoms: _20  and  _21
REMARK   11  A    between atoms: _23  and  _25
REMARK   12  A    between atoms: _25  and  _26
REMARK   13  A    between atoms: _25  and  _28
REMARK   14  A    between atoms: _28  and  _29
REMARK   15  A    between atoms: _29  and  _30
REMARK   16  A    between atoms: _30  and  _31
REMARK   17  A    between atoms: _40  and  _42
REMARK   18  A    between atoms: _42  and  _43
REMARK   19  A    between atoms: _42  and  _45
REMARK   20  A    between atoms: _45  and  _46
REMARK   21  A    between atoms: _51  and  _52
REMARK   22  A    between atoms: _54  and  _56
REMARK   23  A    between atoms: _56  and  _57
REMARK   24  A    between atoms: _56  and  _59
REMARK   25  A    between atoms: _59  and  _60
REMARK   26  A    between atoms: _60  and  _61
REMARK   27  A    between atoms: _64  and  _66
REMARK   28  A    between atoms: _66  and  _67
REMARK   29  A    between atoms: _66  and  _69
REMARK   30  A    between atoms: _69  and  _70
REMARK   31  A    between atoms: _70  and  _71
REMARK   32  A    between atoms: _71  and  _72
REMARK   33  A    between atoms: _72  and  _73
REMARK   34  A    between atoms: _78  and  _79
REMARK   35  A    between atoms: _84  and  _86
REMARK   36  A    between atoms: _86  and  _87
REMARK   37  A    between atoms: _86  and  _89
REMARK   38  A    between atoms: _89  and  _90
REMARK   39  A    between atoms: _90  and  _91
REMARK   40  A    between atoms: _91  and  _92
REMARK   41  A    between atoms: _101  and  _103
REMARK   42  A    between atoms: _103  and  _104
REMARK   43  A    between atoms: _103  and  _106
REMARK   44  A    between atoms: _106  and  _107
REMARK   45  A    between atoms: _110  and  _112
REMARK   46  A    between atoms: _112  and  _113
REMARK   47  A    between atoms: _112  and  _115
REMARK   48  A    between atoms: _115  and  _116
REMARK   49  A    between atoms: _119  and  _121
REMARK   50  A    between atoms: _121  and  _122
REMARK   51  A    between atoms: _121  and  _124
REMARK   52  A    between atoms: _124  and  _125
REMARK   53  A    between atoms: _125  and  _126
REMARK   54  A    between atoms: _129  and  _131
REMARK   55  A    between atoms: _131  and  _132
REMARK   56  A    between atoms: _135  and  _137
REMARK   57  A    between atoms: _137  and  _138
REMARK   58  A    between atoms: _137  and  _140
REMARK   59  A    between atoms: _140  and  _141
REMARK   60  A    between atoms: _144  and  _146
REMARK   61  A    between atoms: _146  and  _147
REMARK   62  A    between atoms: _149  and  _151
REMARK   63  A    between atoms: _151  and  _152
REMARK   64  A    between atoms: _155  and  _157
REMARK   65  A    between atoms: _157  and  _158
REMARK   66  A    between atoms: _157  and  _160
REMARK   67  A    between atoms: _160  and  _161
REMARK   68  A    between atoms: _161  and  _162
REMARK   69  A    between atoms: _162  and  _163
REMARK   70  A    between atoms: _172  and  _174
REMARK   71  A    between atoms: _174  and  _175
REMARK   72  A    between atoms: _174  and  _177
REMARK   73  A    between atoms: _177  and  _178
REMARK   74  A    between atoms: _181  and  _183
REMARK   75  A    between atoms: _183  and  _184
REMARK   76  A    between atoms: _183  and  _186
REMARK   77  A    between atoms: _186  and  _187
REMARK   78  A    between atoms: _190  and  _192
REMARK   79  A    between atoms: _192  and  _193
REMARK   80  A    between atoms: _192  and  _195
REMARK   81  A    between atoms: _195  and  _196
REMARK   82  A    between atoms: _196  and  _197
REMARK   83  A    between atoms: _197  and  _198
REMARK   84  A    between atoms: _198  and  _199
REMARK   85  A    between atoms: _203  and  _205
REMARK   86  A    between atoms: _205  and  _206
REMARK   87  A    between atoms: _205  and  _208
REMARK   88  A    between atoms: _208  and  _209
REMARK   89  A    between atoms: _214  and  _216
REMARK   90  A    between atoms: _216  and  _217
REMARK   91  A    between atoms: _219  and  _221
REMARK   92  A    between atoms: _221  and  _222
REMARK   93  A    between atoms: _221  and  _224
REMARK   94  A    between atoms: _224  and  _225
REMARK   95  A    between atoms: _228  and  _230
REMARK   96  A    between atoms: _230  and  _231
REMARK   97  A    between atoms: _230  and  _233
REMARK   98  A    between atoms: _233  and  _234
REMARK   99  A    between atoms: _237  and  _239
REMARK  100  A    between atoms: _239  and  _240
REMARK  101  A    between atoms: _239  and  _242
REMARK  102  A    between atoms: _242  and  _243
REMARK  103  A    between atoms: _246  and  _248
REMARK  104  A    between atoms: _248  and  _249
REMARK  105  A    between atoms: _248  and  _251
REMARK  106  A    between atoms: _251  and  _252
REMARK  107  A    between atoms: _252  and  _253
REMARK  108  A    between atoms: _253  and  _254
REMARK  109  A    between atoms: _263  and  _265
REMARK  110  A    between atoms: _265  and  _266
REMARK  111  A    between atoms: _268  and  _270
REMARK  112  A    between atoms: _270  and  _271
REMARK  113  A    between atoms: _270  and  _273
REMARK  114  A    between atoms: _273  and  _274
REMARK  115  A    between atoms: _277  and  _279
REMARK  116  A    between atoms: _279  and  _280
REMARK  117  A    between atoms: _279  and  _282
REMARK  118  A    between atoms: _282  and  _283
REMARK  119  A    between atoms: _285  and  _287
REMARK  120  A    between atoms: _287  and  _288
REMARK  121  A    between atoms: _287  and  _290
REMARK  122  A    between atoms: _290  and  _291
REMARK  123  A    between atoms: _295  and  MN_368
REMARK  124  A    between atoms: _296  and  _298
REMARK  125  A    between atoms: _298  and  _299
REMARK  126  A    between atoms: _302  and  _304
REMARK  127  A    between atoms: _304  and  _305
REMARK  128  A    between atoms: _304  and  _307
REMARK  129  A    between atoms: _307  and  _308
REMARK  130  A    between atoms: _313  and  _315
REMARK  131  A    between atoms: _315  and  _316
REMARK  132  A    between atoms: _315  and  _318
REMARK  133  A    between atoms: _318  and  _319
REMARK  134  A    between atoms: _319  and  _320
REMARK  135  A    between atoms: _322  and  _324
REMARK  136  A    between atoms: _324  and  _325
REMARK  137  A    between atoms: _324  and  _327
REMARK  138  A    between atoms: _327  and  _328
REMARK  139  A    between atoms: _328  and  _329
REMARK  140  A    between atoms: _329  and  _331
REMARK  141  A    between atoms: _331  and  MN_368
REMARK  142  A    between atoms: _332  and  _334
REMARK  143  A    between atoms: _334  and  _335
REMARK  144  A    between atoms: _334  and  _337
REMARK  145  A    between atoms: _337  and  _338
REMARK  146  A    between atoms: _340  and  _342
REMARK  147  A    between atoms: _342  and  _343
REMARK  148  A    between atoms: _342  and  _345
REMARK  149  A    between atoms: _345  and  _346
REMARK  150  A    between atoms: _349  and  _351
REMARK  151  A    between atoms: _351  and  _352
REMARK  152  A    between atoms: _351  and  _354
REMARK  153  A    between atoms: _354  and  _355
REMARK  154  A    between atoms: _355  and  _357
REMARK  155  A    between atoms: _357  and  MN_368
REMARK  156  A    between atoms: _358  and  _360
REMARK  157  A    between atoms: _360  and  _361
REMARK  158  A    between atoms: _360  and  _363
REMARK  159  A    between atoms: _363  and  _364
REMARK  160  A    between atoms: _364  and  _365
REMARK                            x       y       z     vdW  Elec       q    Type
REMARK                         _______ _______ _______ _____ _____    ______ ____
ROOT
ATOM      1  C   LYS A   2     -24.483  -8.988 -38.043  0.00  0.00    +0.244 C 
ATOM      2  N   PRO A   3     -23.691 -10.044 -38.275  0.00  0.00    -0.272 N 
ATOM      3  CD  PRO A   3     -23.866 -11.391 -37.708  0.00  0.00    +0.094 C 
ATOM      4  CG  PRO A   3     -22.624 -12.119 -38.115  0.00  0.00    +0.024 C 
ATOM      5  CB  PRO A   3     -21.614 -11.075 -38.401  0.00  0.00    +0.031 C 
ATOM      6  CA  PRO A   3     -22.403  -9.899 -38.937  0.00  0.00    +0.152 C 
ATOM      7  O   LYS A   2     -24.138  -7.836 -38.333  0.00  0.00    -0.273 OA
ENDROOT
BRANCH   6   8
ATOM      8  C   PRO A   3     -22.541 -10.017 -40.423  0.00  0.00    +0.241 C 
ATOM      9  O   PRO A   3     -23.011 -11.042 -40.930  0.00  0.00    -0.273 OA
ATOM     10  N   ARG A   4     -22.199  -8.936 -41.114  0.00  0.00    -0.297 N 
ATOM     11  H   ARG A   4     -21.895  -8.089 -40.592  0.00  0.00    +0.150 HD
BRANCH  10  12
ATOM     12  CA  ARG A   4     -22.230  -8.882 -42.569  0.00  0.00    +0.149 C 
BRANCH  12  13
ATOM     13  C   ARG A   4     -20.973  -9.444 -43.233  0.00  0.00    +0.241 C 
ATOM     14  O   ARG A   4     -19.880  -9.408 -42.673  0.00  0.00    -0.273 OA
ATOM     15  N   THR A   5     -21.163  -9.953 -44.443  0.00  0.00    -0.296 N 
ATOM     16  H   THR A   5     -22.136  -9.976 -44.809  0.00  0.00    +0.150 HD
BRANCH  15  17
ATOM     17  CA  THR A   5     -20.107 -10.483 -45.297  0.00  0.00    +0.164 C 
BRANCH  17  18
ATOM     18  CB  THR A   5     -20.709 -11.213 -46.536  0.00  0.00    +0.136 C 
ATOM     19  CG2 THR A   5     -19.660 -11.492 -47.623  0.00  0.00    +0.034 C 
BRANCH  18  20
ATOM     20  OG1 THR A   5     -21.270 -12.453 -46.104  0.00  0.00    -0.382 OA
ATOM     21  HG1 THR A   5     -21.656 -12.928 -46.882  0.00  0.00    +0.210 HD
ENDBRANCH  18  20
ENDBRANCH  17  18
BRANCH  17  22
ATOM     22  C   THR A   5     -19.212  -9.337 -45.688  0.00  0.00    +0.229 C 
ATOM     23  O   THR A   5     -18.005  -9.442 -45.560  0.00  0.00    -0.286 OA
ENDBRANCH  17  22
ENDBRANCH  15  17
ENDBRANCH  12  13
BRANCH  12  24
ATOM     24  CB  ARG A   4     -22.502  -7.456 -43.055  0.00  0.00    +0.033 C 
BRANCH  24  25
ATOM     25  CG  ARG A   4     -23.783  -6.832 -42.516  0.00  0.00    +0.045 C 
BRANCH  25  26
ATOM     26  CD  ARG A   4     -24.882  -7.860 -42.291  0.00  0.00    +0.174 C 
BRANCH  26  27
ATOM     27  NE  ARG A   4     -25.538  -8.259 -43.533  0.00  0.00    -0.265 N 
ATOM     28  CZ  ARG A   4     -26.776  -7.913 -43.873  0.00  0.00    +0.342 C 
ATOM     29  NH2 ARG A   4     -27.503  -7.152 -43.069  0.00  0.00    -0.292 N 
ATOM     30 HH21 ARG A   4     -27.106  -6.822 -42.166  0.00  0.00    +0.255 HD
ATOM     31 HH22 ARG A   4     -28.471  -6.885 -43.340  0.00  0.00    +0.255 HD
ATOM     32  NH1 ARG A   4     -27.286  -8.327 -45.021  0.00  0.00    -0.292 N 
ATOM     33 HH11 ARG A   4     -28.254  -8.057 -45.287  0.00  0.00    +0.255 HD
ATOM     34 HH12 ARG A   4     -26.719  -8.923 -45.657  0.00  0.00    +0.255 HD
ATOM     35  HE  ARG A   4     -25.001  -8.854 -44.196  0.00  0.00    +0.259 HD
ENDBRANCH  26  27
ENDBRANCH  25  26
ENDBRANCH  24  25
ENDBRANCH  12  24
ENDBRANCH  10  12
ENDBRANCH   6   8
BRANCH   1  36
ATOM     36  CA  LYS A   2     -25.878  -9.266 -37.410  0.00  0.00    +0.149 C 
BRANCH  36  39
ATOM     37  C   GLU A   1     -26.316  -8.947 -35.012  0.00  0.00    +0.238 C 
ATOM     38  O   GLU A   1     -26.251 -10.145 -34.785  0.00  0.00    -0.274 OA
ATOM     39  N   LYS A   2     -26.114  -8.431 -36.225  0.00  0.00    -0.297 N 
ATOM     40  H   LYS A   2     -26.124  -7.397 -36.336  0.00  0.00    +0.150 HD
BRANCH  37  41
ATOM     41  CA  GLU A   1     -26.664  -7.941 -33.895  0.00  0.00    +0.145 C 
BRANCH  41  42
ATOM     42  N   GLU A   1     -27.938  -8.308 -33.273  0.00  0.00    -0.238 NA
ATOM     43  H   GLU A   1     -28.070  -9.294 -32.969  0.00  0.00    +0.142 HD
ENDBRANCH  41  42
BRANCH  41  44
ATOM     44  CB  GLU A   1     -25.560  -7.901 -32.846  0.00  0.00    +0.038 C 
BRANCH  44  45
ATOM     45  CG  GLU A   1     -25.890  -7.000 -31.675  0.00  0.00    +0.116 C 
BRANCH  45  46
ATOM     46  CD  GLU A   1     -24.898  -7.061 -30.525  0.00  0.00    +0.365 C 
ATOM     47  OE2 GLU A   1     -25.083  -6.282 -29.560  0.00  0.00    -0.246 OA
ATOM     48  OE1 GLU A   1     -23.993  -7.916 -30.501  0.00  0.00    -0.246 OA
ENDBRANCH  45  46
ENDBRANCH  44  45
ENDBRANCH  41  44
ENDBRANCH  37  41
ENDBRANCH  36  39
BRANCH  36  49
ATOM     49  CB  LYS A   2     -26.981  -9.011 -38.453  0.00  0.00    +0.029 C 
BRANCH  49  50
ATOM     50  CG  LYS A   2     -28.398  -9.253 -37.975  0.00  0.00    +0.000 C 
BRANCH  50  51
ATOM     51  CD  LYS A   2     -28.583 -10.621 -37.333  0.00  0.00    -0.024 C 
BRANCH  51  52
ATOM     52  CE  LYS A   2     -28.338 -11.744 -38.305  0.00  0.00    -0.086 C 
BRANCH  52  53
ATOM     53  NZ  LYS A   2     -28.579 -13.065 -37.665  0.00  0.00    +0.380 N 
ATOM     54  HZ1 LYS A   2     -27.937 -13.178 -36.855  0.00  0.00    -0.089 HD
ATOM     55  HZ2 LYS A   2     -29.565 -13.116 -37.338  0.00  0.00    -0.089 HD
ATOM     56  HZ3 LYS A   2     -28.403 -13.821 -38.357  0.00  0.00    -0.089 HD
ENDBRANCH  52  53
ENDBRANCH  51  52
ENDBRANCH  50  51
ENDBRANCH  49  50
ENDBRANCH  36  49
ENDBRANCH   1  36
TORSDOF 23
REMARK  Name = ../refined-set-2016/4umc/4umc_pocket.pdb
REMARK  160 active torsions:
REMARK  status: ('A' for Active; 'I' for Inactive)
REMARK    1  A    between atoms: _2  and  _3
REMARK    2  A    between atoms: _8  and  _10
REMARK    3  A    between atoms: _10  and  _11
REMARK    4  A    between atoms: _10  and  _13
REMARK    5  A    between atoms: _13  and  _14
REMARK    6  A    between atoms: _14  and  MN_368
REMARK    7  A    between atoms: _15  and  _17
REMARK    8  A    between atoms: _17  and  _18
REMARK    9  A    between atoms: _17  and  _20
REMARK   10  A    between atoms: _20  and  _21
REMARK   11  A    between atoms: _23  and  _25
REMARK   12  A    between atoms: _25  and  _26
REMARK   13  A    between atoms: _25  and  _28
REMARK   14  A    between atoms: _28  and  _29
REMARK   15  A    between atoms: _29  and  _30
REMARK   16  A    between atoms: _30  and  _31
REMARK   17  A    between atoms: _40  and  _42
REMARK   18  A    between atoms: _42  and  _43
REMARK   19  A    between atoms: _42  and  _45
REMARK   20  A    between atoms: _45  and  _46
REMARK   21  A    between atoms: _51  and  _52
REMARK   22  A    between atoms: _54  and  _56
REMARK   23  A    between atoms: _56  and  _57
REMARK   24  A    between atoms: _56  and  _59
REMARK   25  A    between atoms: _59  and  _60
REMARK   26  A    between atoms: _60  and  _61
REMARK   27  A    between atoms: _64  and  _66
REMARK   28  A    between atoms: _66  and  _67
REMARK   29  A    between atoms: _66  and  _69
REMARK   30  A    between atoms: _69  and  _70
REMARK   31  A    between atoms: _70  and  _71
REMARK   32  A    between atoms: _71  and  _72
REMARK   33  A    between atoms: _72  and  _73
REMARK   34  A    between atoms: _78  and  _79
REMARK   35  A    between atoms: _84  and  _86
REMARK   36  A    between atoms: _86  and  _87
REMARK   37  A    between atoms: _86  and  _89
REMARK   38  A    between atoms: _89  and  _90
REMARK   39  A    between atoms: _90  and  _91
REMARK   40  A    between atoms: _91  and  _92
REMARK   41  A    between atoms: _101  and  _103
REMARK   42  A    between atoms: _103  and  _104
REMARK   43  A    between atoms: _103  and  _106
REMARK   44  A    between atoms: _106  and  _107
REMARK   45  A    between atoms: _110  and  _112
REMARK   46  A    between atoms: _112  and  _113
REMARK   47  A    between atoms: _112  and  _115
REMARK   48  A    between atoms: _115  and  _116
REMARK   49  A    between atoms: _119  and  _121
REMARK   50  A    between atoms: _121  and  _122
REMARK   51  A    between atoms: _121  and  _124
REMARK   52  A    between atoms: _124  and  _125
REMARK   53  A    between atoms: _125  and  _126
REMARK   54  A    between atoms: _129  and  _131
REMARK   55  A    between atoms: _131  and  _132
REMARK   56  A    between atoms: _135  and  _137
REMARK   57  A    between atoms: _137  and  _138
REMARK   58  A    between atoms: _137  and  _140
REMARK   59  A    between atoms: _140  and  _141
REMARK   60  A    between atoms: _144  and  _146
REMARK   61  A    between atoms: _146  and  _147
REMARK   62  A    between atoms: _149  and  _151
REMARK   63  A    between atoms: _151  and  _152
REMARK   64  A    between atoms: _155  and  _157
REMARK   65  A    between atoms: _157  and  _158
REMARK   66  A    between atoms: _157  and  _160
REMARK   67  A    between atoms: _160  and  _161
REMARK   68  A    between atoms: _161  and  _162
REMARK   69  A    between atoms: _162  and  _163
REMARK   70  A    between atoms: _172  and  _174
REMARK   71  A    between atoms: _174  and  _175
REMARK   72  A    between atoms: _174  and  _177
REMARK   73  A    between atoms: _177  and  _178
REMARK   74  A    between atoms: _181  and  _183
REMARK   75  A    between atoms: _183  and  _184
REMARK   76  A    between atoms: _183  and  _186
REMARK   77  A    between atoms: _186  and  _187
REMARK   78  A    between atoms: _190  and  _192
REMARK   79  A    between atoms: _192  and  _193
REMARK   80  A    between atoms: _192  and  _195
REMARK   81  A    between atoms: _195  and  _196
REMARK   82  A    between atoms: _196  and  _197
REMARK   83  A    between atoms: _197  and  _198
REMARK   84  A    between atoms: _198  and  _199
REMARK   85  A    between atoms: _203  and  _205
REMARK   86  A    between atoms: _205  and  _206
REMARK   87  A    between atoms: _205  and  _208
REMARK   88  A    between atoms: _208  and  _209
REMARK   89  A    between atoms: _214  and  _216
REMARK   90  A    between atoms: _216  and  _217
REMARK   91  A    between atoms: _219  and  _221
REMARK   92  A    between atoms: _221  and  _222
REMARK   93  A    between atoms: _221  and  _224
REMARK   94  A    between atoms: _224  and  _225
REMARK   95  A    between atoms: _228  and  _230
REMARK   96  A    between atoms: _230  and  _231
REMARK   97  A    between atoms: _230  and  _233
REMARK   98  A    between atoms: _233  and  _234
REMARK   99  A    between atoms: _237  and  _239
REMARK  100  A    between atoms: _239  and  _240
REMARK  101  A    between atoms: _239  and  _242
REMARK  102  A    between atoms: _242  and  _243
REMARK  103  A    between atoms: _246  and  _248
REMARK  104  A    between atoms: _248  and  _249
REMARK  105  A    between atoms: _248  and  _251
REMARK  106  A    between atoms: _251  and  _252
REMARK  107  A    between atoms: _252  and  _253
REMARK  108  A    between atoms: _253  and  _254
REMARK  109  A    between atoms: _263  and  _265
REMARK  110  A    between atoms: _265  and  _266
REMARK  111  A    between atoms: _268  and  _270
REMARK  112  A    between atoms: _270  and  _271
REMARK  113  A    between atoms: _270  and  _273
REMARK  114  A    between atoms: _273  and  _274
REMARK  115  A    between atoms: _277  and  _279
REMARK  116  A    between atoms: _279  and  _280
REMARK  117  A    between atoms: _279  and  _282
REMARK  118  A    between atoms: _282  and  _283
REMARK  119  A    between atoms: _285  and  _287
REMARK  120  A    between atoms: _287  and  _288
REMARK  121  A    between atoms: _287  and  _290
REMARK  122  A    between atoms: _290  and  _291
REMARK  123  A    between atoms: _295  and  MN_368
REMARK  124  A    between atoms: _296  and  _298
REMARK  125  A    between atoms: _298  and  _299
REMARK  126  A    between atoms: _302  and  _304
REMARK  127  A    between atoms: _304  and  _305
REMARK  128  A    between atoms: _304  and  _307
REMARK  129  A    between atoms: _307  and  _308
REMARK  130  A    between atoms: _313  and  _315
REMARK  131  A    between atoms: _315  and  _316
REMARK  132  A    between atoms: _315  and  _318
REMARK  133  A    between atoms: _318  and  _319
REMARK  134  A    between atoms: _319  and  _320
REMARK  135  A    between atoms: _322  and  _324
REMARK  136  A    between atoms: _324  and  _325
REMARK  137  A    between atoms: _324  and  _327
REMARK  138  A    between atoms: _327  and  _328
REMARK  139  A    between atoms: _328  and  _329
REMARK  140  A    between atoms: _329  and  _331
REMARK  141  A    between atoms: _331  and  MN_368
REMARK  142  A    between atoms: _332  and  _334
REMARK  143  A    between atoms: _334  and  _335
REMARK  144  A    between atoms: _334  and  _337
REMARK  145  A    between atoms: _337  and  _338
REMARK  146  A    between atoms: _340  and  _342
REMARK  147  A    between atoms: _342  and  _343
REMARK  148  A    between atoms: _342  and  _345
REMARK  149  A    between atoms: _345  and  _346
REMARK  150  A    between atoms: _349  and  _351
REMARK  151  A    between atoms: _351  and  _352
REMARK  152  A    between atoms: _351  and  _354
REMARK  153  A    between atoms: _354  and  _355
REMARK  154  A    between atoms: _355  and  _357
REMARK  155  A    between atoms: _357  and  MN_368
REMARK  156  A    between atoms: _358  and  _360
REMARK  157  A    between atoms: _360  and  _361
REMARK  158  A    between atoms: _360  and  _363
REMARK  159  A    between atoms: _363  and  _364
REMARK  160  A    between atoms: _364  and  _365
REMARK                            x       y       z     vdW  Elec       q    Type
REMARK                         _______ _______ _______ _____ _____    ______ ____
ROOT
ATOM      1  C   THR A   1     -27.593 -14.177 -29.540  0.00  0.00    +0.241 C 
ATOM      2  O   THR A   1     -26.960 -14.976 -28.852  0.00  0.00    -0.274 OA
ATOM      3  N   GLU A   2     -27.078 -13.594 -30.625  0.00  0.00    -0.298 N 
ATOM      4  H   GLU A   2     -27.703 -13.081 -31.279  0.00  0.00    +0.150 HD
ENDROOT
BRANCH   1   5
ATOM      5  CA  THR A   1     -29.024 -13.851 -29.196  0.00  0.00    +0.172 C 
BRANCH   5   6
ATOM      6  N   THR A   1     -29.480 -14.767 -28.174  0.00  0.00    -0.236 NA
ATOM      7  H   THR A   1     -28.791 -15.222 -27.541  0.00  0.00    +0.142 HD
ENDBRANCH   5   6
BRANCH   5   8
ATOM      8  CB  THR A   1     -29.155 -12.400 -28.721  0.00  0.00    +0.135 C 
ATOM      9  CG2 THR A   1     -28.174 -12.114 -27.596  0.00  0.00    +0.034 C 
BRANCH   8  10
ATOM     10  OG1 THR A   1     -28.874 -11.498 -29.788  0.00  0.00    -0.383 OA
ATOM     11  HG1 THR A   1     -28.963 -10.567 -29.464  0.00  0.00    +0.210 HD
ENDBRANCH   8  10
ENDBRANCH   5   8
ENDBRANCH   1   5
BRANCH   3  12
ATOM     12  CA  GLU A   2     -25.650 -13.669 -30.903  0.00  0.00    +0.137 C 
BRANCH  12  13
ATOM     13  C   GLU A   2     -25.003 -12.480 -30.257  0.00  0.00    +0.227 C 
ATOM     14  O   GLU A   2     -25.459 -11.363 -30.433  0.00  0.00    -0.286 OA
ENDBRANCH  12  13
BRANCH  12  15
ATOM     15  CB  GLU A   2     -25.318 -13.655 -32.406  0.00  0.00    +0.039 C 
BRANCH  15  16
ATOM     16  CG  GLU A   2     -23.815 -13.568 -32.635  0.00  0.00    +0.116 C 
BRANCH  16  17
ATOM     17  CD  GLU A   2     -23.350 -13.568 -34.073  0.00  0.00    +0.365 C 
ATOM     18  OE2 GLU A   2     -22.170 -13.164 -34.283  0.00  0.00    -0.246 OA
ATOM     19  OE1 GLU A   2     -24.117 -13.989 -34.964  0.00  0.00    -0.246 OA
ENDBRANCH  16  17
ENDBRANCH  15  16
ENDBRANCH  12  15
ENDBRANCH   3  12
TORSDOF 9
REMARK  Name = ../refined-set-2016/4umc/4umc_pocket.pdb
REMARK  160 active torsions:
REMARK  status: ('A' for Active; 'I' for Inactive)
REMARK    1  A    between atoms: _2  and  _3
REMARK    2  A    between atoms: _8  and  _10
REMARK    3  A    between atoms: _10  and  _11
REMARK    4  A    between atoms: _10  and  _13
REMARK    5  A    between atoms: _13  and  _14
REMARK    6  A    between atoms: _14  and  MN_368
REMARK    7  A    between atoms: _15  and  _17
REMARK    8  A    between atoms: _17  and  _18
REMARK    9  A    between atoms: _17  and  _20
REMARK   10  A    between atoms: _20  and  _21
REMARK   11  A    between atoms: _23  and  _25
REMARK   12  A    between atoms: _25  and  _26
REMARK   13  A    between atoms: _25  and  _28
REMARK   14  A    between atoms: _28  and  _29
REMARK   15  A    between atoms: _29  and  _30
REMARK   16  A    between atoms: _30  and  _31
REMARK   17  A    between atoms: _40  and  _42
REMARK   18  A    between atoms: _42  and  _43
REMARK   19  A    between atoms: _42  and  _45
REMARK   20  A    between atoms: _45  and  _46
REMARK   21  A    between atoms: _51  and  _52
REMARK   22  A    between atoms: _54  and  _56
REMARK   23  A    between atoms: _56  and  _57
REMARK   24  A    between atoms: _56  and  _59
REMARK   25  A    between atoms: _59  and  _60
REMARK   26  A    between atoms: _60  and  _61
REMARK   27  A    between atoms: _64  and  _66
REMARK   28  A    between atoms: _66  and  _67
REMARK   29  A    between atoms: _66  and  _69
REMARK   30  A    between atoms: _69  and  _70
REMARK   31  A    between atoms: _70  and  _71
REMARK   32  A    between atoms: _71  and  _72
REMARK   33  A    between atoms: _72  and  _73
REMARK   34  A    between atoms: _78  and  _79
REMARK   35  A    between atoms: _84  and  _86
REMARK   36  A    between atoms: _86  and  _87
REMARK   37  A    between atoms: _86  and  _89
REMARK   38  A    between atoms: _89  and  _90
REMARK   39  A    between atoms: _90  and  _91
REMARK   40  A    between atoms: _91  and  _92
REMARK   41  A    between atoms: _101  and  _103
REMARK   42  A    between atoms: _103  and  _104
REMARK   43  A    between atoms: _103  and  _106
REMARK   44  A    between atoms: _106  and  _107
REMARK   45  A    between atoms: _110  and  _112
REMARK   46  A    between atoms: _112  and  _113
REMARK   47  A    between atoms: _112  and  _115
REMARK   48  A    between atoms: _115  and  _116
REMARK   49  A    between atoms: _119  and  _121
REMARK   50  A    between atoms: _121  and  _122
REMARK   51  A    between atoms: _121  and  _124
REMARK   52  A    between atoms: _124  and  _125
REMARK   53  A    between atoms: _125  and  _126
REMARK   54  A    between atoms: _129  and  _131
REMARK   55  A    between atoms: _131  and  _132
REMARK   56  A    between atoms: _135  and  _137
REMARK   57  A    between atoms: _137  and  _138
REMARK   58  A    between atoms: _137  and  _140
REMARK   59  A    between atoms: _140  and  _141
REMARK   60  A    between atoms: _144  and  _146
REMARK   61  A    between atoms: _146  and  _147
REMARK   62  A    between atoms: _149  and  _151
REMARK   63  A    between atoms: _151  and  _152
REMARK   64  A    between atoms: _155  and  _157
REMARK   65  A    between atoms: _157  and  _158
REMARK   66  A    between atoms: _157  and  _160
REMARK   67  A    between atoms: _160  and  _161
REMARK   68  A    between atoms: _161  and  _162
REMARK   69  A    between atoms: _162  and  _163
REMARK   70  A    between atoms: _172  and  _174
REMARK   71  A    between atoms: _174  and  _175
REMARK   72  A    between atoms: _174  and  _177
REMARK   73  A    between atoms: _177  and  _178
REMARK   74  A    between atoms: _181  and  _183
REMARK   75  A    between atoms: _183  and  _184
REMARK   76  A    between atoms: _183  and  _186
REMARK   77  A    between atoms: _186  and  _187
REMARK   78  A    between atoms: _190  and  _192
REMARK   79  A    between atoms: _192  and  _193
REMARK   80  A    between atoms: _192  and  _195
REMARK   81  A    between atoms: _195  and  _196
REMARK   82  A    between atoms: _196  and  _197
REMARK   83  A    between atoms: _197  and  _198
REMARK   84  A    between atoms: _198  and  _199
REMARK   85  A    between atoms: _203  and  _205
REMARK   86  A    between atoms: _205  and  _206
REMARK   87  A    between atoms: _205  and  _208
REMARK   88  A    between atoms: _208  and  _209
REMARK   89  A    between atoms: _214  and  _216
REMARK   90  A    between atoms: _216  and  _217
REMARK   91  A    between atoms: _219  and  _221
REMARK   92  A    between atoms: _221  and  _222
REMARK   93  A    between atoms: _221  and  _224
REMARK   94  A    between atoms: _224  and  _225
REMARK   95  A    between atoms: _228  and  _230
REMARK   96  A    between atoms: _230  and  _231
REMARK   97  A    between atoms: _230  and  _233
REMARK   98  A    between atoms: _233  and  _234
REMARK   99  A    between atoms: _237  and  _239
REMARK  100  A    between atoms: _239  and  _240
REMARK  101  A    between atoms: _239  and  _242
REMARK  102  A    between atoms: _242  and  _243
REMARK  103  A    between atoms: _246  and  _248
REMARK  104  A    between atoms: _248  and  _249
REMARK  105  A    between atoms: _248  and  _251
REMARK  106  A    between atoms: _251  and  _252
REMARK  107  A    between atoms: _252  and  _253
REMARK  108  A    between atoms: _253  and  _254
REMARK  109  A    between atoms: _263  and  _265
REMARK  110  A    between atoms: _265  and  _266
REMARK  111  A    between atoms: _268  and  _270
REMARK  112  A    between atoms: _270  and  _271
REMARK  113  A    between atoms: _270  and  _273
REMARK  114  A    between atoms: _273  and  _274
REMARK  115  A    between atoms: _277  and  _279
REMARK  116  A    between atoms: _279  and  _280
REMARK  117  A    between atoms: _279  and  _282
REMARK  118  A    between atoms: _282  and  _283
REMARK  119  A    between atoms: _285  and  _287
REMARK  120  A    between atoms: _287  and  _288
REMARK  121  A    between atoms: _287  and  _290
REMARK  122  A    between atoms: _290  and  _291
REMARK  123  A    between atoms: _295  and  MN_368
REMARK  124  A    between atoms: _296  and  _298
REMARK  125  A    between atoms: _298  and  _299
REMARK  126  A    between atoms: _302  and  _304
REMARK  127  A    between atoms: _304  and  _305
REMARK  128  A    between atoms: _304  and  _307
REMARK  129  A    between atoms: _307  and  _308
REMARK  130  A    between atoms: _313  and  _315
REMARK  131  A    between atoms: _315  and  _316
REMARK  132  A    between atoms: _315  and  _318
REMARK  133  A    between atoms: _318  and  _319
REMARK  134  A    between atoms: _319  and  _320
REMARK  135  A    between atoms: _322  and  _324
REMARK  136  A    between atoms: _324  and  _325
REMARK  137  A    between atoms: _324  and  _327
REMARK  138  A    between atoms: _327  and  _328
REMARK  139  A    between atoms: _328  and  _329
REMARK  140  A    between atoms: _329  and  _331
REMARK  141  A    between atoms: _331  and  MN_368
REMARK  142  A    between atoms: _332  and  _334
REMARK  143  A    between atoms: _334  and  _335
REMARK  144  A    between atoms: _334  and  _337
REMARK  145  A    between atoms: _337  and  _338
REMARK  146  A    between atoms: _340  and  _342
REMARK  147  A    between atoms: _342  and  _343
REMARK  148  A    between atoms: _342  and  _345
REMARK  149  A    between atoms: _345  and  _346
REMARK  150  A    between atoms: _349  and  _351
REMARK  151  A    between atoms: _351  and  _352
REMARK  152  A    between atoms: _351  and  _354
REMARK  153  A    between atoms: _354  and  _355
REMARK  154  A    between atoms: _355  and  _357
REMARK  155  A    between atoms: _357  and  MN_368
REMARK  156  A    between atoms: _358  and  _360
REMARK  157  A    between atoms: _360  and  _361
REMARK  158  A    between atoms: _360  and  _363
REMARK  159  A    between atoms: _363  and  _364
REMARK  160  A    between atoms: _364  and  _365
REMARK                            x       y       z     vdW  Elec       q    Type
REMARK                         _______ _______ _______ _____ _____    ______ ____
ROOT
ATOM      1  CA  ARG A   5     -17.051 -15.294 -38.102  0.00  0.00    +0.149 C 
ENDROOT
BRANCH   1   2
ATOM      2  C   ARG A   5     -16.268 -14.704 -36.968  0.00  0.00    +0.241 C 
ATOM      3  N   THR A   6     -16.684 -15.003 -35.743  0.00  0.00    -0.295 N 
ATOM      4  H   THR A   6     -17.492 -15.648 -35.629  0.00  0.00    +0.150 HD
ATOM      5  O   ARG A   5     -15.384 -13.882 -37.200  0.00  0.00    -0.273 OA
BRANCH   3   6
ATOM      6  CA  THR A   6     -16.043 -14.454 -34.552  0.00  0.00    +0.176 C 
BRANCH   6   7
ATOM      7  C   THR A   6     -15.594 -15.486 -33.517  0.00  0.00    +0.243 C 
ATOM      8  O   THR A   6     -15.118 -15.125 -32.456  0.00  0.00    -0.273 OA
ATOM      9  N   THR A   7     -15.776 -16.762 -33.815  0.00  0.00    -0.296 N 
ATOM     10  H   THR A   7     -16.174 -17.015 -34.742  0.00  0.00    +0.150 HD
BRANCH   9  11
ATOM     11  CA  THR A   7     -15.432 -17.822 -32.875  0.00  0.00    +0.164 C 
BRANCH  11  12
ATOM     12  C   THR A   7     -13.931 -17.844 -32.586  0.00  0.00    +0.229 C 
ATOM     13  O   THR A   7     -13.506 -18.111 -31.466  0.00  0.00    -0.286 OA
ENDBRANCH  11  12
BRANCH  11  14
ATOM     14  CB  THR A   7     -15.977 -19.190 -33.345  0.00  0.00    +0.136 C 
ATOM     15  CG2 THR A   7     -15.261 -20.364 -32.677  0.00  0.00    +0.034 C 
BRANCH  14  16
ATOM     16  OG1 THR A   7     -17.367 -19.267 -33.025  0.00  0.00    -0.382 OA
ATOM     17  HG1 THR A   7     -17.725 -20.141 -33.323  0.00  0.00    +0.210 HD
ENDBRANCH  14  16
ENDBRANCH  11  14
ENDBRANCH   9  11
ENDBRANCH   6   7
BRANCH   6  18
ATOM     18  CB  THR A   6     -16.939 -13.407 -33.869  0.00  0.00    +0.137 C 
ATOM     19  CG2 THR A   6     -16.850 -12.084 -34.598  0.00  0.00    +0.034 C 
BRANCH  18  20
ATOM     20  OG1 THR A   6     -18.294 -13.859 -33.873  0.00  0.00    -0.382 OA
ATOM     21  HG1 THR A   6     -18.594 -13.990 -34.807  0.00  0.00    +0.210 HD
ENDBRANCH  18  20
ENDBRANCH   6  18
ENDBRANCH   3   6
ENDBRANCH   1   2
BRANCH   1  24
ATOM     22  C   ALA A   4     -17.741 -17.555 -37.479  0.00  0.00    +0.241 C 
ATOM     23  O   ALA A   4     -16.619 -18.007 -37.518  0.00  0.00    -0.273 OA
ATOM     24  N   ARG A   5     -18.031 -16.286 -37.688  0.00  0.00    -0.297 N 
ATOM     25  H   ARG A   5     -19.014 -15.977 -37.549  0.00  0.00    +0.150 HD
BRANCH  22  26
ATOM     26  CA  ALA A   4     -18.938 -18.477 -37.171  0.00  0.00    +0.149 C 
ATOM     27  CB  ALA A   4     -19.525 -19.034 -38.461  0.00  0.00    +0.031 C 
BRANCH  26  30
ATOM     28  C   GLY A   3     -19.701 -17.194 -35.258  0.00  0.00    +0.243 C 
ATOM     29  O   GLY A   3     -18.587 -17.122 -34.773  0.00  0.00    -0.273 OA
ATOM     30  N   ALA A   4     -19.954 -17.767 -36.423  0.00  0.00    -0.297 N 
ATOM     31  H   ALA A   4     -20.915 -17.705 -36.815  0.00  0.00    +0.150 HD
BRANCH  28  32
ATOM     32  CA  GLY A   3     -20.895 -16.535 -34.607  0.00  0.00    +0.176 C 
BRANCH  32  35
ATOM     33  C   ILE A   2     -20.621 -17.087 -32.260  0.00  0.00    +0.241 C 
ATOM     34  O   ILE A   2     -20.488 -18.307 -32.490  0.00  0.00    -0.273 OA
ATOM     35  N   GLY A   3     -20.731 -16.166 -33.203  0.00  0.00    -0.295 N 
ATOM     36  H   GLY A   3     -20.700 -15.160 -32.940  0.00  0.00    +0.150 HD
BRANCH  33  37
ATOM     37  CA  ILE A   2     -20.712 -16.565 -30.862  0.00  0.00    +0.148 C 
BRANCH  37  40
ATOM     38  C   ALA A   1     -22.972 -16.664 -29.940  0.00  0.00    +0.238 C 
ATOM     39  O   ALA A   1     -23.132 -15.412 -29.879  0.00  0.00    -0.274 OA
ATOM     40  N   ILE A   2     -21.817 -17.272 -30.227  0.00  0.00    -0.297 N 
ATOM     41  H   ILE A   2     -21.703 -18.278 -29.990  0.00  0.00    +0.150 HD
BRANCH  38  42
ATOM     42  CA  ALA A   1     -24.095 -17.592 -29.610  0.00  0.00    +0.145 C 
ATOM     43  CB  ALA A   1     -24.866 -17.869 -30.877  0.00  0.00    +0.028 C 
BRANCH  42  44
ATOM     44  N   ALA A   1     -24.960 -17.033 -28.596  0.00  0.00    -0.238 NA
ATOM     45  H   ALA A   1     -25.529 -16.189 -28.807  0.00  0.00    +0.142 HD
ENDBRANCH  42  44
ENDBRANCH  38  42
ENDBRANCH  37  40
BRANCH  37  46
ATOM     46  CB  ILE A   2     -19.398 -16.806 -30.154  0.00  0.00    +0.027 C 
ATOM     47  CG2 ILE A   2     -18.264 -16.132 -30.918  0.00  0.00    +0.002 C 
BRANCH  46  48
ATOM     48  CG1 ILE A   2     -19.468 -16.305 -28.701  0.00  0.00    +0.002 C 
ATOM     49  CD1 ILE A   2     -19.586 -14.814 -28.547  0.00  0.00    +0.000 C 
ENDBRANCH  46  48
ENDBRANCH  37  46
ENDBRANCH  33  37
ENDBRANCH  32  35
ENDBRANCH  28  32
ENDBRANCH  26  30
ENDBRANCH  22  26
ENDBRANCH   1  24
BRANCH   1  50
ATOM     50  CB  ARG A   5     -17.749 -14.154 -38.835  0.00  0.00    +0.033 C 
BRANCH  50  51
ATOM     51  CG  ARG A   5     -18.372 -14.622 -40.138  0.00  0.00    +0.045 C 
BRANCH  51  52
ATOM     52  CD  ARG A   5     -19.225 -13.559 -40.826  0.00  0.00    +0.174 C 
BRANCH  52  53
ATOM     53  NE  ARG A   5     -19.964 -14.186 -41.930  0.00  0.00    -0.265 N 
ATOM     54  CZ  ARG A   5     -21.023 -15.002 -41.797  0.00  0.00    +0.342 C 
ATOM     55  NH2 ARG A   5     -21.528 -15.310 -40.607  0.00  0.00    -0.292 N 
ATOM     56 HH21 ARG A   5     -21.102 -14.916 -39.744  0.00  0.00    +0.255 HD
ATOM     57 HH22 ARG A   5     -22.349 -15.945 -40.539  0.00  0.00    +0.255 HD
ATOM     58  NH1 ARG A   5     -21.571 -15.509 -42.878  0.00  0.00    -0.292 N 
ATOM     59 HH11 ARG A   5     -22.392 -16.143 -42.797  0.00  0.00    +0.255 HD
ATOM     60 HH12 ARG A   5     -21.184 -15.277 -43.815  0.00  0.00    +0.255 HD
ATOM     61  HE  ARG A   5     -19.640 -13.981 -42.897  0.00  0.00    +0.259 HD
ENDBRANCH  52  53
ENDBRANCH  51  52
ENDBRANCH  50  51
ENDBRANCH   1  50
TORSDOF 24
REMARK  Name = ../refined-set-2016/4umc/4umc_pocket.pdb
REMARK  160 active torsions:
REMARK  status: ('A' for Active; 'I' for Inactive)
REMARK    1  A    between atoms: _2  and  _3
REMARK    2  A    between atoms: _8  and  _10
REMARK    3  A    between atoms: _10  and  _11
REMARK    4  A    between atoms: _10  and  _13
REMARK    5  A    between atoms: _13  and  _14
REMARK    6  A    between atoms: _14  and  MN_368
REMARK    7  A    between atoms: _15  and  _17
REMARK    8  A    between atoms: _17  and  _18
REMARK    9  A    between atoms: _17  and  _20
REMARK   10  A    between atoms: _20  and  _21
REMARK   11  A    between atoms: _23  and  _25
REMARK   12  A    between atoms: _25  and  _26
REMARK   13  A    between atoms: _25  and  _28
REMARK   14  A    between atoms: _28  and  _29
REMARK   15  A    between atoms: _29  and  _30
REMARK   16  A    between atoms: _30  and  _31
REMARK   17  A    between atoms: _40  and  _42
REMARK   18  A    between atoms: _42  and  _43
REMARK   19  A    between atoms: _42  and  _45
REMARK   20  A    between atoms: _45  and  _46
REMARK   21  A    between atoms: _51  and  _52
REMARK   22  A    between atoms: _54  and  _56
REMARK   23  A    between atoms: _56  and  _57
REMARK   24  A    between atoms: _56  and  _59
REMARK   25  A    between atoms: _59  and  _60
REMARK   26  A    between atoms: _60  and  _61
REMARK   27  A    between atoms: _64  and  _66
REMARK   28  A    between atoms: _66  and  _67
REMARK   29  A    between atoms: _66  and  _69
REMARK   30  A    between atoms: _69  and  _70
REMARK   31  A    between atoms: _70  and  _71
REMARK   32  A    between atoms: _71  and  _72
REMARK   33  A    between atoms: _72  and  _73
REMARK   34  A    between atoms: _78  and  _79
REMARK   35  A    between atoms: _84  and  _86
REMARK   36  A    between atoms: _86  and  _87
REMARK   37  A    between atoms: _86  and  _89
REMARK   38  A    between atoms: _89  and  _90
REMARK   39  A    between atoms: _90  and  _91
REMARK   40  A    between atoms: _91  and  _92
REMARK   41  A    between atoms: _101  and  _103
REMARK   42  A    between atoms: _103  and  _104
REMARK   43  A    between atoms: _103  and  _106
REMARK   44  A    between atoms: _106  and  _107
REMARK   45  A    between atoms: _110  and  _112
REMARK   46  A    between atoms: _112  and  _113
REMARK   47  A    between atoms: _112  and  _115
REMARK   48  A    between atoms: _115  and  _116
REMARK   49  A    between atoms: _119  and  _121
REMARK   50  A    between atoms: _121  and  _122
REMARK   51  A    between atoms: _121  and  _124
REMARK   52  A    between atoms: _124  and  _125
REMARK   53  A    between atoms: _125  and  _126
REMARK   54  A    between atoms: _129  and  _131
REMARK   55  A    between atoms: _131  and  _132
REMARK   56  A    between atoms: _135  and  _137
REMARK   57  A    between atoms: _137  and  _138
REMARK   58  A    between atoms: _137  and  _140
REMARK   59  A    between atoms: _140  and  _141
REMARK   60  A    between atoms: _144  and  _146
REMARK   61  A    between atoms: _146  and  _147
REMARK   62  A    between atoms: _149  and  _151
REMARK   63  A    between atoms: _151  and  _152
REMARK   64  A    between atoms: _155  and  _157
REMARK   65  A    between atoms: _157  and  _158
REMARK   66  A    between atoms: _157  and  _160
REMARK   67  A    between atoms: _160  and  _161
REMARK   68  A    between atoms: _161  and  _162
REMARK   69  A    between atoms: _162  and  _163
REMARK   70  A    between atoms: _172  and  _174
REMARK   71  A    between atoms: _174  and  _175
REMARK   72  A    between atoms: _174  and  _177
REMARK   73  A    between atoms: _177  and  _178
REMARK   74  A    between atoms: _181  and  _183
REMARK   75  A    between atoms: _183  and  _184
REMARK   76  A    between atoms: _183  and  _186
REMARK   77  A    between atoms: _186  and  _187
REMARK   78  A    between atoms: _190  and  _192
REMARK   79  A    between atoms: _192  and  _193
REMARK   80  A    between atoms: _192  and  _195
REMARK   81  A    between atoms: _195  and  _196
REMARK   82  A    between atoms: _196  and  _197
REMARK   83  A    between atoms: _197  and  _198
REMARK   84  A    between atoms: _198  and  _199
REMARK   85  A    between atoms: _203  and  _205
REMARK   86  A    between atoms: _205  and  _206
REMARK   87  A    between atoms: _205  and  _208
REMARK   88  A    between atoms: _208  and  _209
REMARK   89  A    between atoms: _214  and  _216
REMARK   90  A    between atoms: _216  and  _217
REMARK   91  A    between atoms: _219  and  _221
REMARK   92  A    between atoms: _221  and  _222
REMARK   93  A    between atoms: _221  and  _224
REMARK   94  A    between atoms: _224  and  _225
REMARK   95  A    between atoms: _228  and  _230
REMARK   96  A    between atoms: _230  and  _231
REMARK   97  A    between atoms: _230  and  _233
REMARK   98  A    between atoms: _233  and  _234
REMARK   99  A    between atoms: _237  and  _239
REMARK  100  A    between atoms: _239  and  _240
REMARK  101  A    between atoms: _239  and  _242
REMARK  102  A    between atoms: _242  and  _243
REMARK  103  A    between atoms: _246  and  _248
REMARK  104  A    between atoms: _248  and  _249
REMARK  105  A    between atoms: _248  and  _251
REMARK  106  A    between atoms: _251  and  _252
REMARK  107  A    between atoms: _252  and  _253
REMARK  108  A    between atoms: _253  and  _254
REMARK  109  A    between atoms: _263  and  _265
REMARK  110  A    between atoms: _265  and  _266
REMARK  111  A    between atoms: _268  and  _270
REMARK  112  A    between atoms: _270  and  _271
REMARK  113  A    between atoms: _270  and  _273
REMARK  114  A    between atoms: _273  and  _274
REMARK  115  A    between atoms: _277  and  _279
REMARK  116  A    between atoms: _279  and  _280
REMARK  117  A    between atoms: _279  and  _282
REMARK  118  A    between atoms: _282  and  _283
REMARK  119  A    between atoms: _285  and  _287
REMARK  120  A    between atoms: _287  and  _288
REMARK  121  A    between atoms: _287  and  _290
REMARK  122  A    between atoms: _290  and  _291
REMARK  123  A    between atoms: _295  and  MN_368
REMARK  124  A    between atoms: _296  and  _298
REMARK  125  A    between atoms: _298  and  _299
REMARK  126  A    between atoms: _302  and  _304
REMARK  127  A    between atoms: _304  and  _305
REMARK  128  A    between atoms: _304  and  _307
REMARK  129  A    between atoms: _307  and  _308
REMARK  130  A    between atoms: _313  and  _315
REMARK  131  A    between atoms: _315  and  _316
REMARK  132  A    between atoms: _315  and  _318
REMARK  133  A    between atoms: _318  and  _319
REMARK  134  A    between atoms: _319  and  _320
REMARK  135  A    between atoms: _322  and  _324
REMARK  136  A    between atoms: _324  and  _325
REMARK  137  A    between atoms: _324  and  _327
REMARK  138  A    between atoms: _327  and  _328
REMARK  139  A    between atoms: _328  and  _329
REMARK  140  A    between atoms: _329  and  _331
REMARK  141  A    between atoms: _331  and  MN_368
REMARK  142  A    between atoms: _332  and  _334
REMARK  143  A    between atoms: _334  and  _335
REMARK  144  A    between atoms: _334  and  _337
REMARK  145  A    between atoms: _337  and  _338
REMARK  146  A    between atoms: _340  and  _342
REMARK  147  A    between atoms: _342  and  _343
REMARK  148  A    between atoms: _342  and  _345
REMARK  149  A    between atoms: _345  and  _346
REMARK  150  A    between atoms: _349  and  _351
REMARK  151  A    between atoms: _351  and  _352
REMARK  152  A    between atoms: _351  and  _354
REMARK  153  A    between atoms: _354  and  _355
REMARK  154  A    between atoms: _355  and  _357
REMARK  155  A    between atoms: _357  and  MN_368
REMARK  156  A    between atoms: _358  and  _360
REMARK  157  A    between atoms: _360  and  _361
REMARK  158  A    between atoms: _360  and  _363
REMARK  159  A    between atoms: _363  and  _364
REMARK  160  A    between atoms: _364  and  _365
REMARK                            x       y       z     vdW  Elec       q    Type
REMARK                         _______ _______ _______ _____ _____    ______ ____
ROOT
ATOM      1  CA  ASN A   2     -17.637 -23.691 -36.416  0.00  0.00    +0.158 C 
ENDROOT
BRANCH   1   4
ATOM      2  C   LYS A   1     -18.791 -22.332 -34.813  0.00  0.00    +0.238 C 
ATOM      3  O   LYS A   1     -17.843 -21.628 -34.650  0.00  0.00    -0.274 OA
ATOM      4  N   ASN A   2     -18.767 -23.407 -35.585  0.00  0.00    -0.297 N 
ATOM      5  H   ASN A   2     -19.581 -24.054 -35.588  0.00  0.00    +0.150 HD
BRANCH   2   6
ATOM      6  CA  LYS A   1     -20.077 -22.024 -34.114  0.00  0.00    +0.145 C 
BRANCH   6   7
ATOM      7  N   LYS A   1     -19.846 -21.442 -32.811  0.00  0.00    -0.238 NA
ATOM      8  H   LYS A   1     -19.806 -20.407 -32.720  0.00  0.00    +0.142 HD
ENDBRANCH   6   7
BRANCH   6   9
ATOM      9  CB  LYS A   1     -20.842 -21.051 -34.960  0.00  0.00    +0.026 C 
BRANCH   9  10
ATOM     10  CG  LYS A   1     -22.248 -20.839 -34.433  0.00  0.00    -0.000 C 
BRANCH  10  11
ATOM     11  CD  LYS A   1     -23.098 -20.103 -35.443  0.00  0.00    -0.024 C 
BRANCH  11  12
ATOM     12  CE  LYS A   1     -24.427 -20.793 -35.605  0.00  0.00    -0.086 C 
BRANCH  12  13
ATOM     13  NZ  LYS A   1     -25.214 -20.048 -36.611  0.00  0.00    +0.380 N 
ATOM     14  HZ1 LYS A   1     -25.355 -19.071 -36.285  0.00  0.00    -0.089 HD
ATOM     15  HZ2 LYS A   1     -26.137 -20.509 -36.738  0.00  0.00    -0.089 HD
ATOM     16  HZ3 LYS A   1     -24.701 -20.042 -37.516  0.00  0.00    -0.089 HD
ENDBRANCH  12  13
ENDBRANCH  11  12
ENDBRANCH  10  11
ENDBRANCH   9  10
ENDBRANCH   6   9
ENDBRANCH   2   6
ENDBRANCH   1   4
BRANCH   1  17
ATOM     17  C   ASN A   2     -17.480 -22.600 -37.464  0.00  0.00    +0.241 C 
ATOM     18  O   ASN A   2     -18.406 -21.841 -37.707  0.00  0.00    -0.273 OA
ATOM     19  N   GLY A   3     -16.279 -22.509 -38.040  0.00  0.00    -0.295 N 
ATOM     20  H   GLY A   3     -15.561 -23.231 -37.827  0.00  0.00    +0.150 HD
BRANCH  19  21
ATOM     21  CA  GLY A   3     -15.943 -21.428 -38.959  0.00  0.00    +0.176 C 
BRANCH  21  22
ATOM     22  C   GLY A   3     -16.683 -21.522 -40.286  0.00  0.00    +0.243 C 
ATOM     23  O   GLY A   3     -17.235 -22.568 -40.626  0.00  0.00    -0.273 OA
ATOM     24  N   THR A   4     -16.671 -20.435 -41.056  0.00  0.00    -0.296 N 
ATOM     25  H   THR A   4     -16.053 -19.636 -40.809  0.00  0.00    +0.150 HD
BRANCH  24  26
ATOM     26  CA  THR A   4     -17.512 -20.353 -42.237  0.00  0.00    +0.164 C 
BRANCH  26  27
ATOM     27  CB  THR A   4     -17.582 -18.935 -42.817  0.00  0.00    +0.136 C 
ATOM     28  CG2 THR A   4     -18.277 -17.995 -41.875  0.00  0.00    +0.034 C 
BRANCH  27  29
ATOM     29  OG1 THR A   4     -16.258 -18.459 -43.028  0.00  0.00    -0.382 OA
ATOM     30  HG1 THR A   4     -16.294 -17.543 -43.403  0.00  0.00    +0.210 HD
ENDBRANCH  27  29
ENDBRANCH  26  27
BRANCH  26  31
ATOM     31  C   THR A   4     -17.102 -21.345 -43.316  0.00  0.00    +0.229 C 
ATOM     32  O   THR A   4     -17.916 -21.678 -44.162  0.00  0.00    -0.286 OA
ENDBRANCH  26  31
ENDBRANCH  24  26
ENDBRANCH  21  22
ENDBRANCH  19  21
ENDBRANCH   1  17
BRANCH   1  33
ATOM     33  CB  ASN A   2     -17.719 -25.099 -37.043  0.00  0.00    +0.114 C 
BRANCH  33  34
ATOM     34  CG  ASN A   2     -18.851 -25.263 -38.052  0.00  0.00    +0.222 C 
ATOM     35  OD1 ASN A   2     -19.760 -26.055 -37.835  0.00  0.00    -0.275 OA
ATOM     36  ND2 ASN A   2     -18.761 -24.587 -39.179  0.00  0.00    -0.329 N 
ATOM     37 HD21 ASN A   2     -17.974 -23.923 -39.326  0.00  0.00    +0.145 HD
ATOM     38 HD22 ASN A   2     -19.477 -24.717 -39.922  0.00  0.00    +0.145 HD
ENDBRANCH  33  34
ENDBRANCH   1  33
TORSDOF 17
REMARK  Name = ../refined-set-2016/4umc/4umc_pocket.pdb
REMARK  160 active torsions:
REMARK  status: ('A' for Active; 'I' for Inactive)
REMARK    1  A    between atoms: _2  and  _3
REMARK    2  A    between atoms: _8  and  _10
REMARK    3  A    between atoms: _10  and  _11
REMARK    4  A    between atoms: _10  and  _13
REMARK    5  A    between atoms: _13  and  _14
REMARK    6  A    between atoms: _14  and  MN_368
REMARK    7  A    between atoms: _15  and  _17
REMARK    8  A    between atoms: _17  and  _18
REMARK    9  A    between atoms: _17  and  _20
REMARK   10  A    between atoms: _20  and  _21
REMARK   11  A    between atoms: _23  and  _25
REMARK   12  A    between atoms: _25  and  _26
REMARK   13  A    between atoms: _25  and  _28
REMARK   14  A    between atoms: _28  and  _29
REMARK   15  A    between atoms: _29  and  _30
REMARK   16  A    between atoms: _30  and  _31
REMARK   17  A    between atoms: _40  and  _42
REMARK   18  A    between atoms: _42  and  _43
REMARK   19  A    between atoms: _42  and  _45
REMARK   20  A    between atoms: _45  and  _46
REMARK   21  A    between atoms: _51  and  _52
REMARK   22  A    between atoms: _54  and  _56
REMARK   23  A    between atoms: _56  and  _57
REMARK   24  A    between atoms: _56  and  _59
REMARK   25  A    between atoms: _59  and  _60
REMARK   26  A    between atoms: _60  and  _61
REMARK   27  A    between atoms: _64  and  _66
REMARK   28  A    between atoms: _66  and  _67
REMARK   29  A    between atoms: _66  and  _69
REMARK   30  A    between atoms: _69  and  _70
REMARK   31  A    between atoms: _70  and  _71
REMARK   32  A    between atoms: _71  and  _72
REMARK   33  A    between atoms: _72  and  _73
REMARK   34  A    between atoms: _78  and  _79
REMARK   35  A    between atoms: _84  and  _86
REMARK   36  A    between atoms: _86  and  _87
REMARK   37  A    between atoms: _86  and  _89
REMARK   38  A    between atoms: _89  and  _90
REMARK   39  A    between atoms: _90  and  _91
REMARK   40  A    between atoms: _91  and  _92
REMARK   41  A    between atoms: _101  and  _103
REMARK   42  A    between atoms: _103  and  _104
REMARK   43  A    between atoms: _103  and  _106
REMARK   44  A    between atoms: _106  and  _107
REMARK   45  A    between atoms: _110  and  _112
REMARK   46  A    between atoms: _112  and  _113
REMARK   47  A    between atoms: _112  and  _115
REMARK   48  A    between atoms: _115  and  _116
REMARK   49  A    between atoms: _119  and  _121
REMARK   50  A    between atoms: _121  and  _122
REMARK   51  A    between atoms: _121  and  _124
REMARK   52  A    between atoms: _124  and  _125
REMARK   53  A    between atoms: _125  and  _126
REMARK   54  A    between atoms: _129  and  _131
REMARK   55  A    between atoms: _131  and  _132
REMARK   56  A    between atoms: _135  and  _137
REMARK   57  A    between atoms: _137  and  _138
REMARK   58  A    between atoms: _137  and  _140
REMARK   59  A    between atoms: _140  and  _141
REMARK   60  A    between atoms: _144  and  _146
REMARK   61  A    between atoms: _146  and  _147
REMARK   62  A    between atoms: _149  and  _151
REMARK   63  A    between atoms: _151  and  _152
REMARK   64  A    between atoms: _155  and  _157
REMARK   65  A    between atoms: _157  and  _158
REMARK   66  A    between atoms: _157  and  _160
REMARK   67  A    between atoms: _160  and  _161
REMARK   68  A    between atoms: _161  and  _162
REMARK   69  A    between atoms: _162  and  _163
REMARK   70  A    between atoms: _172  and  _174
REMARK   71  A    between atoms: _174  and  _175
REMARK   72  A    between atoms: _174  and  _177
REMARK   73  A    between atoms: _177  and  _178
REMARK   74  A    between atoms: _181  and  _183
REMARK   75  A    between atoms: _183  and  _184
REMARK   76  A    between atoms: _183  and  _186
REMARK   77  A    between atoms: _186  and  _187
REMARK   78  A    between atoms: _190  and  _192
REMARK   79  A    between atoms: _192  and  _193
REMARK   80  A    between atoms: _192  and  _195
REMARK   81  A    between atoms: _195  and  _196
REMARK   82  A    between atoms: _196  and  _197
REMARK   83  A    between atoms: _197  and  _198
REMARK   84  A    between atoms: _198  and  _199
REMARK   85  A    between atoms: _203  and  _205
REMARK   86  A    between atoms: _205  and  _206
REMARK   87  A    between atoms: _205  and  _208
REMARK   88  A    between atoms: _208  and  _209
REMARK   89  A    between atoms: _214  and  _216
REMARK   90  A    between atoms: _216  and  _217
REMARK   91  A    between atoms: _219  and  _221
REMARK   92  A    between atoms: _221  and  _222
REMARK   93  A    between atoms: _221  and  _224
REMARK   94  A    between atoms: _224  and  _225
REMARK   95  A    between atoms: _228  and  _230
REMARK   96  A    between atoms: _230  and  _231
REMARK   97  A    between atoms: _230  and  _233
REMARK   98  A    between atoms: _233  and  _234
REMARK   99  A    between atoms: _237  and  _239
REMARK  100  A    between atoms: _239  and  _240
REMARK  101  A    between atoms: _239  and  _242
REMARK  102  A    between atoms: _242  and  _243
REMARK  103  A    between atoms: _246  and  _248
REMARK  104  A    between atoms: _248  and  _249
REMARK  105  A    between atoms: _248  and  _251
REMARK  106  A    between atoms: _251  and  _252
REMARK  107  A    between atoms: _252  and  _253
REMARK  108  A    between atoms: _253  and  _254
REMARK  109  A    between atoms: _263  and  _265
REMARK  110  A    between atoms: _265  and  _266
REMARK  111  A    between atoms: _268  and  _270
REMARK  112  A    between atoms: _270  and  _271
REMARK  113  A    between atoms: _270  and  _273
REMARK  114  A    between atoms: _273  and  _274
REMARK  115  A    between atoms: _277  and  _279
REMARK  116  A    between atoms: _279  and  _280
REMARK  117  A    between atoms: _279  and  _282
REMARK  118  A    between atoms: _282  and  _283
REMARK  119  A    between atoms: _285  and  _287
REMARK  120  A    between atoms: _287  and  _288
REMARK  121  A    between atoms: _287  and  _290
REMARK  122  A    between atoms: _290  and  _291
REMARK  123  A    between atoms: _295  and  MN_368
REMARK  124  A    between atoms: _296  and  _298
REMARK  125  A    between atoms: _298  and  _299
REMARK  126  A    between atoms: _302  and  _304
REMARK  127  A    between atoms: _304  and  _305
REMARK  128  A    between atoms: _304  and  _307
REMARK  129  A    between atoms: _307  and  _308
REMARK  130  A    between atoms: _313  and  _315
REMARK  131  A    between atoms: _315  and  _316
REMARK  132  A    between atoms: _315  and  _318
REMARK  133  A    between atoms: _318  and  _319
REMARK  134  A    between atoms: _319  and  _320
REMARK  135  A    between atoms: _322  and  _324
REMARK  136  A    between atoms: _324  and  _325
REMARK  137  A    between atoms: _324  and  _327
REMARK  138  A    between atoms: _327  and  _328
REMARK  139  A    between atoms: _328  and  _329
REMARK  140  A    between atoms: _329  and  _331
REMARK  141  A    between atoms: _331  and  MN_368
REMARK  142  A    between atoms: _332  and  _334
REMARK  143  A    between atoms: _334  and  _335
REMARK  144  A    between atoms: _334  and  _337
REMARK  145  A    between atoms: _337  and  _338
REMARK  146  A    between atoms: _340  and  _342
REMARK  147  A    between atoms: _342  and  _343
REMARK  148  A    between atoms: _342  and  _345
REMARK  149  A    between atoms: _345  and  _346
REMARK  150  A    between atoms: _349  and  _351
REMARK  151  A    between atoms: _351  and  _352
REMARK  152  A    between atoms: _351  and  _354
REMARK  153  A    between atoms: _354  and  _355
REMARK  154  A    between atoms: _355  and  _357
REMARK  155  A    between atoms: _357  and  MN_368
REMARK  156  A    between atoms: _358  and  _360
REMARK  157  A    between atoms: _360  and  _361
REMARK  158  A    between atoms: _360  and  _363
REMARK  159  A    between atoms: _363  and  _364
REMARK  160  A    between atoms: _364  and  _365
REMARK                            x       y       z     vdW  Elec       q    Type
REMARK                         _______ _______ _______ _____ _____    ______ ____
ROOT
ATOM      1  C   LEU A   2     -23.183 -26.710 -37.126  0.00  0.00    +0.241 C 
ATOM      2  O   LEU A   2     -24.404 -26.925 -37.085  0.00  0.00    -0.273 OA
ATOM      3  N   ARG A   3     -22.637 -25.774 -37.902  0.00  0.00    -0.297 N 
ATOM      4  H   ARG A   3     -21.608 -25.630 -37.863  0.00  0.00    +0.150 HD
ENDROOT
BRANCH   1   5
ATOM      5  CA  LEU A   2     -22.252 -27.451 -36.206  0.00  0.00    +0.149 C 
BRANCH   5   8
ATOM      6  C   ILE A   1     -21.963 -26.051 -34.237  0.00  0.00    +0.238 C 
ATOM      7  O   ILE A   1     -21.092 -25.397 -34.790  0.00  0.00    -0.274 OA
ATOM      8  N   LEU A   2     -22.575 -27.055 -34.839  0.00  0.00    -0.297 N 
ATOM      9  H   LEU A   2     -23.310 -27.580 -34.323  0.00  0.00    +0.150 HD
BRANCH   6  10
ATOM     10  CA  ILE A   1     -22.422 -25.711 -32.829  0.00  0.00    +0.145 C 
BRANCH  10  11
ATOM     11  N   ILE A   1     -21.308 -25.673 -31.910  0.00  0.00    -0.238 NA
ATOM     12  H   ILE A   1     -20.477 -25.102 -32.166  0.00  0.00    +0.142 HD
ENDBRANCH  10  11
BRANCH  10  13
ATOM     13  CB  ILE A   1     -23.099 -24.345 -32.933  0.00  0.00    +0.025 C 
ATOM     14  CG2 ILE A   1     -24.224 -24.413 -33.959  0.00  0.00    +0.002 C 
BRANCH  13  15
ATOM     15  CG1 ILE A   1     -23.626 -23.889 -31.569  0.00  0.00    +0.002 C 
ATOM     16  CD1 ILE A   1     -23.983 -22.420 -31.551  0.00  0.00    +0.000 C 
ENDBRANCH  13  15
ENDBRANCH  10  13
ENDBRANCH   6  10
ENDBRANCH   5   8
BRANCH   5  17
ATOM     17  CB  LEU A   2     -22.438 -28.957 -36.377  0.00  0.00    +0.029 C 
BRANCH  17  18
ATOM     18  CG  LEU A   2     -21.589 -29.820 -35.449  0.00  0.00    +0.002 C 
ATOM     19  CD2 LEU A   2     -22.018 -31.274 -35.510  0.00  0.00    +0.000 C 
ATOM     20  CD1 LEU A   2     -20.095 -29.708 -35.800  0.00  0.00    +0.000 C 
ENDBRANCH  17  18
ENDBRANCH   5  17
ENDBRANCH   1   5
BRANCH   3  21
ATOM     21  CA  ARG A   3     -23.433 -24.939 -38.809  0.00  0.00    +0.149 C 
BRANCH  21  22
ATOM     22  C   ARG A   3     -23.137 -25.083 -40.311  0.00  0.00    +0.241 C 
ATOM     23  N   GLY A   4     -22.389 -26.113 -40.686  0.00  0.00    -0.296 N 
ATOM     24  H   GLY A   4     -22.124 -26.821 -39.972  0.00  0.00    +0.150 HD
ATOM     25  O   ARG A   3     -23.574 -24.261 -41.110  0.00  0.00    -0.273 OA
BRANCH  23  26
ATOM     26  CA  GLY A   4     -21.924 -26.295 -42.052  0.00  0.00    +0.163 C 
BRANCH  26  27
ATOM     27  C   GLY A   4     -20.641 -25.522 -42.411  0.00  0.00    +0.229 C 
ATOM     28  O   GLY A   4     -20.254 -24.554 -41.737  0.00  0.00    -0.286 OA
ENDBRANCH  26  27
ENDBRANCH  23  26
ENDBRANCH  21  22
BRANCH  21  29
ATOM     29  CB  ARG A   3     -23.357 -23.465 -38.391  0.00  0.00    +0.033 C 
BRANCH  29  30
ATOM     30  CG  ARG A   3     -21.948 -22.909 -38.274  0.00  0.00    +0.045 C 
BRANCH  30  31
ATOM     31  CD  ARG A   3     -21.399 -22.511 -39.633  0.00  0.00    +0.174 C 
BRANCH  31  32
ATOM     32  NE  ARG A   3     -21.884 -21.207 -40.069  0.00  0.00    -0.265 N 
ATOM     33  HE  ARG A   3     -22.386 -20.617 -39.375  0.00  0.00    +0.259 HD
ATOM     34  CZ  ARG A   3     -21.725 -20.724 -41.296  0.00  0.00    +0.342 C 
ATOM     35  NH2 ARG A   3     -22.196 -19.528 -41.606  0.00  0.00    -0.292 N 
ATOM     36 HH21 ARG A   3     -22.693 -18.963 -40.888  0.00  0.00    +0.255 HD
ATOM     37 HH22 ARG A   3     -22.070 -19.153 -42.568  0.00  0.00    +0.255 HD
ATOM     38  NH1 ARG A   3     -21.091 -21.437 -42.213  0.00  0.00    -0.292 N 
ATOM     39 HH11 ARG A   3     -20.716 -22.377 -41.973  0.00  0.00    +0.255 HD
ATOM     40 HH12 ARG A   3     -20.967 -21.057 -43.173  0.00  0.00    +0.255 HD
ENDBRANCH  31  32
ENDBRANCH  30  31
ENDBRANCH  29  30
ENDBRANCH  21  29
ENDBRANCH   3  21
TORSDOF 16
REMARK  Name = ../refined-set-2016/4umc/4umc_pocket.pdb
REMARK  160 active torsions:
REMARK  status: ('A' for Active; 'I' for Inactive)
REMARK    1  A    between atoms: _2  and  _3
REMARK    2  A    between atoms: _8  and  _10
REMARK    3  A    between atoms: _10  and  _11
REMARK    4  A    between atoms: _10  and  _13
REMARK    5  A    between atoms: _13  and  _14
REMARK    6  A    between atoms: _14  and  MN_368
REMARK    7  A    between atoms: _15  and  _17
REMARK    8  A    between atoms: _17  and  _18
REMARK    9  A    between atoms: _17  and  _20
REMARK   10  A    between atoms: _20  and  _21
REMARK   11  A    between atoms: _23  and  _25
REMARK   12  A    between atoms: _25  and  _26
REMARK   13  A    between atoms: _25  and  _28
REMARK   14  A    between atoms: _28  and  _29
REMARK   15  A    between atoms: _29  and  _30
REMARK   16  A    between atoms: _30  and  _31
REMARK   17  A    between atoms: _40  and  _42
REMARK   18  A    between atoms: _42  and  _43
REMARK   19  A    between atoms: _42  and  _45
REMARK   20  A    between atoms: _45  and  _46
REMARK   21  A    between atoms: _51  and  _52
REMARK   22  A    between atoms: _54  and  _56
REMARK   23  A    between atoms: _56  and  _57
REMARK   24  A    between atoms: _56  and  _59
REMARK   25  A    between atoms: _59  and  _60
REMARK   26  A    between atoms: _60  and  _61
REMARK   27  A    between atoms: _64  and  _66
REMARK   28  A    between atoms: _66  and  _67
REMARK   29  A    between atoms: _66  and  _69
REMARK   30  A    between atoms: _69  and  _70
REMARK   31  A    between atoms: _70  and  _71
REMARK   32  A    between atoms: _71  and  _72
REMARK   33  A    between atoms: _72  and  _73
REMARK   34  A    between atoms: _78  and  _79
REMARK   35  A    between atoms: _84  and  _86
REMARK   36  A    between atoms: _86  and  _87
REMARK   37  A    between atoms: _86  and  _89
REMARK   38  A    between atoms: _89  and  _90
REMARK   39  A    between atoms: _90  and  _91
REMARK   40  A    between atoms: _91  and  _92
REMARK   41  A    between atoms: _101  and  _103
REMARK   42  A    between atoms: _103  and  _104
REMARK   43  A    between atoms: _103  and  _106
REMARK   44  A    between atoms: _106  and  _107
REMARK   45  A    between atoms: _110  and  _112
REMARK   46  A    between atoms: _112  and  _113
REMARK   47  A    between atoms: _112  and  _115
REMARK   48  A    between atoms: _115  and  _116
REMARK   49  A    between atoms: _119  and  _121
REMARK   50  A    between atoms: _121  and  _122
REMARK   51  A    between atoms: _121  and  _124
REMARK   52  A    between atoms: _124  and  _125
REMARK   53  A    between atoms: _125  and  _126
REMARK   54  A    between atoms: _129  and  _131
REMARK   55  A    between atoms: _131  and  _132
REMARK   56  A    between atoms: _135  and  _137
REMARK   57  A    between atoms: _137  and  _138
REMARK   58  A    between atoms: _137  and  _140
REMARK   59  A    between atoms: _140  and  _141
REMARK   60  A    between atoms: _144  and  _146
REMARK   61  A    between atoms: _146  and  _147
REMARK   62  A    between atoms: _149  and  _151
REMARK   63  A    between atoms: _151  and  _152
REMARK   64  A    between atoms: _155  and  _157
REMARK   65  A    between atoms: _157  and  _158
REMARK   66  A    between atoms: _157  and  _160
REMARK   67  A    between atoms: _160  and  _161
REMARK   68  A    between atoms: _161  and  _162
REMARK   69  A    between atoms: _162  and  _163
REMARK   70  A    between atoms: _172  and  _174
REMARK   71  A    between atoms: _174  and  _175
REMARK   72  A    between atoms: _174  and  _177
REMARK   73  A    between atoms: _177  and  _178
REMARK   74  A    between atoms: _181  and  _183
REMARK   75  A    between atoms: _183  and  _184
REMARK   76  A    between atoms: _183  and  _186
REMARK   77  A    between atoms: _186  and  _187
REMARK   78  A    between atoms: _190  and  _192
REMARK   79  A    between atoms: _192  and  _193
REMARK   80  A    between atoms: _192  and  _195
REMARK   81  A    between atoms: _195  and  _196
REMARK   82  A    between atoms: _196  and  _197
REMARK   83  A    between atoms: _197  and  _198
REMARK   84  A    between atoms: _198  and  _199
REMARK   85  A    between atoms: _203  and  _205
REMARK   86  A    between atoms: _205  and  _206
REMARK   87  A    between atoms: _205  and  _208
REMARK   88  A    between atoms: _208  and  _209
REMARK   89  A    between atoms: _214  and  _216
REMARK   90  A    between atoms: _216  and  _217
REMARK   91  A    between atoms: _219  and  _221
REMARK   92  A    between atoms: _221  and  _222
REMARK   93  A    between atoms: _221  and  _224
REMARK   94  A    between atoms: _224  and  _225
REMARK   95  A    between atoms: _228  and  _230
REMARK   96  A    between atoms: _230  and  _231
REMARK   97  A    between atoms: _230  and  _233
REMARK   98  A    between atoms: _233  and  _234
REMARK   99  A    between atoms: _237  and  _239
REMARK  100  A    between atoms: _239  and  _240
REMARK  101  A    between atoms: _239  and  _242
REMARK  102  A    between atoms: _242  and  _243
REMARK  103  A    between atoms: _246  and  _248
REMARK  104  A    between atoms: _248  and  _249
REMARK  105  A    between atoms: _248  and  _251
REMARK  106  A    between atoms: _251  and  _252
REMARK  107  A    between atoms: _252  and  _253
REMARK  108  A    between atoms: _253  and  _254
REMARK  109  A    between atoms: _263  and  _265
REMARK  110  A    between atoms: _265  and  _266
REMARK  111  A    between atoms: _268  and  _270
REMARK  112  A    between atoms: _270  and  _271
REMARK  113  A    between atoms: _270  and  _273
REMARK  114  A    between atoms: _273  and  _274
REMARK  115  A    between atoms: _277  and  _279
REMARK  116  A    between atoms: _279  and  _280
REMARK  117  A    between atoms: _279  and  _282
REMARK  118  A    between atoms: _282  and  _283
REMARK  119  A    between atoms: _285  and  _287
REMARK  120  A    between atoms: _287  and  _288
REMARK  121  A    between atoms: _287  and  _290
REMARK  122  A    between atoms: _290  and  _291
REMARK  123  A    between atoms: _295  and  MN_368
REMARK  124  A    between atoms: _296  and  _298
REMARK  125  A    between atoms: _298  and  _299
REMARK  126  A    between atoms: _302  and  _304
REMARK  127  A    between atoms: _304  and  _305
REMARK  128  A    between atoms: _304  and  _307
REMARK  129  A    between atoms: _307  and  _308
REMARK  130  A    between atoms: _313  and  _315
REMARK  131  A    between atoms: _315  and  _316
REMARK  132  A    between atoms: _315  and  _318
REMARK  133  A    between atoms: _318  and  _319
REMARK  134  A    between atoms: _319  and  _320
REMARK  135  A    between atoms: _322  and  _324
REMARK  136  A    between atoms: _324  and  _325
REMARK  137  A    between atoms: _324  and  _327
REMARK  138  A    between atoms: _327  and  _328
REMARK  139  A    between atoms: _328  and  _329
REMARK  140  A    between atoms: _329  and  _331
REMARK  141  A    between atoms: _331  and  MN_368
REMARK  142  A    between atoms: _332  and  _334
REMARK  143  A    between atoms: _334  and  _335
REMARK  144  A    between atoms: _334  and  _337
REMARK  145  A    between atoms: _337  and  _338
REMARK  146  A    between atoms: _340  and  _342
REMARK  147  A    between atoms: _342  and  _343
REMARK  148  A    between atoms: _342  and  _345
REMARK  149  A    between atoms: _345  and  _346
REMARK  150  A    between atoms: _349  and  _351
REMARK  151  A    between atoms: _351  and  _352
REMARK  152  A    between atoms: _351  and  _354
REMARK  153  A    between atoms: _354  and  _355
REMARK  154  A    between atoms: _355  and  _357
REMARK  155  A    between atoms: _357  and  MN_368
REMARK  156  A    between atoms: _358  and  _360
REMARK  157  A    between atoms: _360  and  _361
REMARK  158  A    between atoms: _360  and  _363
REMARK  159  A    between atoms: _363  and  _364
REMARK  160  A    between atoms: _364  and  _365
REMARK                            x       y       z     vdW  Elec       q    Type
REMARK                         _______ _______ _______ _____ _____    ______ ____
ROOT
ATOM      1  CA  ASP A   1     -27.805 -25.644 -36.780  0.00  0.00    +0.144 C 
ENDROOT
BRANCH   1   2
ATOM      2  N   ASP A   1     -27.034 -26.680 -36.128  0.00  0.00    -0.239 NA
ATOM      3  H   ASP A   1     -26.018 -26.752 -36.338  0.00  0.00    +0.142 HD
ENDBRANCH   1   2
BRANCH   1   4
ATOM      4  C   ASP A   1     -28.406 -26.218 -38.070  0.00  0.00    +0.225 C 
ATOM      5  O   ASP A   1     -27.688 -26.696 -38.925  0.00  0.00    -0.287 OA
ENDBRANCH   1   4
BRANCH   1   6
ATOM      6  CB  ASP A   1     -26.909 -24.441 -37.078  0.00  0.00    +0.139 C 
BRANCH   6   7
ATOM      7  CG  ASP A   1     -27.655 -23.236 -37.662  0.00  0.00    +0.367 C 
ATOM      8  OD2 ASP A   1     -28.895 -23.263 -37.834  0.00  0.00    -0.246 OA
ATOM      9  OD1 ASP A   1     -26.973 -22.226 -37.929  0.00  0.00    -0.246 OA
ENDBRANCH   6   7
ENDBRANCH   1   6
TORSDOF 4
REMARK  Name = ../refined-set-2016/4umc/4umc_pocket.pdb
REMARK  160 active torsions:
REMARK  status: ('A' for Active; 'I' for Inactive)
REMARK    1  A    between atoms: _2  and  _3
REMARK    2  A    between atoms: _8  and  _10
REMARK    3  A    between atoms: _10  and  _11
REMARK    4  A    between atoms: _10  and  _13
REMARK    5  A    between atoms: _13  and  _14
REMARK    6  A    between atoms: _14  and  MN_368
REMARK    7  A    between atoms: _15  and  _17
REMARK    8  A    between atoms: _17  and  _18
REMARK    9  A    between atoms: _17  and  _20
REMARK   10  A    between atoms: _20  and  _21
REMARK   11  A    between atoms: _23  and  _25
REMARK   12  A    between atoms: _25  and  _26
REMARK   13  A    between atoms: _25  and  _28
REMARK   14  A    between atoms: _28  and  _29
REMARK   15  A    between atoms: _29  and  _30
REMARK   16  A    between atoms: _30  and  _31
REMARK   17  A    between atoms: _40  and  _42
REMARK   18  A    between atoms: _42  and  _43
REMARK   19  A    between atoms: _42  and  _45
REMARK   20  A    between atoms: _45  and  _46
REMARK   21  A    between atoms: _51  and  _52
REMARK   22  A    between atoms: _54  and  _56
REMARK   23  A    between atoms: _56  and  _57
REMARK   24  A    between atoms: _56  and  _59
REMARK   25  A    between atoms: _59  and  _60
REMARK   26  A    between atoms: _60  and  _61
REMARK   27  A    between atoms: _64  and  _66
REMARK   28  A    between atoms: _66  and  _67
REMARK   29  A    between atoms: _66  and  _69
REMARK   30  A    between atoms: _69  and  _70
REMARK   31  A    between atoms: _70  and  _71
REMARK   32  A    between atoms: _71  and  _72
REMARK   33  A    between atoms: _72  and  _73
REMARK   34  A    between atoms: _78  and  _79
REMARK   35  A    between atoms: _84  and  _86
REMARK   36  A    between atoms: _86  and  _87
REMARK   37  A    between atoms: _86  and  _89
REMARK   38  A    between atoms: _89  and  _90
REMARK   39  A    between atoms: _90  and  _91
REMARK   40  A    between atoms: _91  and  _92
REMARK   41  A    between atoms: _101  and  _103
REMARK   42  A    between atoms: _103  and  _104
REMARK   43  A    between atoms: _103  and  _106
REMARK   44  A    between atoms: _106  and  _107
REMARK   45  A    between atoms: _110  and  _112
REMARK   46  A    between atoms: _112  and  _113
REMARK   47  A    between atoms: _112  and  _115
REMARK   48  A    between atoms: _115  and  _116
REMARK   49  A    between atoms: _119  and  _121
REMARK   50  A    between atoms: _121  and  _122
REMARK   51  A    between atoms: _121  and  _124
REMARK   52  A    between atoms: _124  and  _125
REMARK   53  A    between atoms: _125  and  _126
REMARK   54  A    between atoms: _129  and  _131
REMARK   55  A    between atoms: _131  and  _132
REMARK   56  A    between atoms: _135  and  _137
REMARK   57  A    between atoms: _137  and  _138
REMARK   58  A    between atoms: _137  and  _140
REMARK   59  A    between atoms: _140  and  _141
REMARK   60  A    between atoms: _144  and  _146
REMARK   61  A    between atoms: _146  and  _147
REMARK   62  A    between atoms: _149  and  _151
REMARK   63  A    between atoms: _151  and  _152
REMARK   64  A    between atoms: _155  and  _157
REMARK   65  A    between atoms: _157  and  _158
REMARK   66  A    between atoms: _157  and  _160
REMARK   67  A    between atoms: _160  and  _161
REMARK   68  A    between atoms: _161  and  _162
REMARK   69  A    between atoms: _162  and  _163
REMARK   70  A    between atoms: _172  and  _174
REMARK   71  A    between atoms: _174  and  _175
REMARK   72  A    between atoms: _174  and  _177
REMARK   73  A    between atoms: _177  and  _178
REMARK   74  A    between atoms: _181  and  _183
REMARK   75  A    between atoms: _183  and  _184
REMARK   76  A    between atoms: _183  and  _186
REMARK   77  A    between atoms: _186  and  _187
REMARK   78  A    between atoms: _190  and  _192
REMARK   79  A    between atoms: _192  and  _193
REMARK   80  A    between atoms: _192  and  _195
REMARK   81  A    between atoms: _195  and  _196
REMARK   82  A    between atoms: _196  and  _197
REMARK   83  A    between atoms: _197  and  _198
REMARK   84  A    between atoms: _198  and  _199
REMARK   85  A    between atoms: _203  and  _205
REMARK   86  A    between atoms: _205  and  _206
REMARK   87  A    between atoms: _205  and  _208
REMARK   88  A    between atoms: _208  and  _209
REMARK   89  A    between atoms: _214  and  _216
REMARK   90  A    between atoms: _216  and  _217
REMARK   91  A    between atoms: _219  and  _221
REMARK   92  A    between atoms: _221  and  _222
REMARK   93  A    between atoms: _221  and  _224
REMARK   94  A    between atoms: _224  and  _225
REMARK   95  A    between atoms: _228  and  _230
REMARK   96  A    between atoms: _230  and  _231
REMARK   97  A    between atoms: _230  and  _233
REMARK   98  A    between atoms: _233  and  _234
REMARK   99  A    between atoms: _237  and  _239
REMARK  100  A    between atoms: _239  and  _240
REMARK  101  A    between atoms: _239  and  _242
REMARK  102  A    between atoms: _242  and  _243
REMARK  103  A    between atoms: _246  and  _248
REMARK  104  A    between atoms: _248  and  _249
REMARK  105  A    between atoms: _248  and  _251
REMARK  106  A    between atoms: _251  and  _252
REMARK  107  A    between atoms: _252  and  _253
REMARK  108  A    between atoms: _253  and  _254
REMARK  109  A    between atoms: _263  and  _265
REMARK  110  A    between atoms: _265  and  _266
REMARK  111  A    between atoms: _268  and  _270
REMARK  112  A    between atoms: _270  and  _271
REMARK  113  A    between atoms: _270  and  _273
REMARK  114  A    between atoms: _273  and  _274
REMARK  115  A    between atoms: _277  and  _279
REMARK  116  A    between atoms: _279  and  _280
REMARK  117  A    between atoms: _279  and  _282
REMARK  118  A    between atoms: _282  and  _283
REMARK  119  A    between atoms: _285  and  _287
REMARK  120  A    between atoms: _287  and  _288
REMARK  121  A    between atoms: _287  and  _290
REMARK  122  A    between atoms: _290  and  _291
REMARK  123  A    between atoms: _295  and  MN_368
REMARK  124  A    between atoms: _296  and  _298
REMARK  125  A    between atoms: _298  and  _299
REMARK  126  A    between atoms: _302  and  _304
REMARK  127  A    between atoms: _304  and  _305
REMARK  128  A    between atoms: _304  and  _307
REMARK  129  A    between atoms: _307  and  _308
REMARK  130  A    between atoms: _313  and  _315
REMARK  131  A    between atoms: _315  and  _316
REMARK  132  A    between atoms: _315  and  _318
REMARK  133  A    between atoms: _318  and  _319
REMARK  134  A    between atoms: _319  and  _320
REMARK  135  A    between atoms: _322  and  _324
REMARK  136  A    between atoms: _324  and  _325
REMARK  137  A    between atoms: _324  and  _327
REMARK  138  A    between atoms: _327  and  _328
REMARK  139  A    between atoms: _328  and  _329
REMARK  140  A    between atoms: _329  and  _331
REMARK  141  A    between atoms: _331  and  MN_368
REMARK  142  A    between atoms: _332  and  _334
REMARK  143  A    between atoms: _334  and  _335
REMARK  144  A    between atoms: _334  and  _337
REMARK  145  A    between atoms: _337  and  _338
REMARK  146  A    between atoms: _340  and  _342
REMARK  147  A    between atoms: _342  and  _343
REMARK  148  A    between atoms: _342  and  _345
REMARK  149  A    between atoms: _345  and  _346
REMARK  150  A    between atoms: _349  and  _351
REMARK  151  A    between atoms: _351  and  _352
REMARK  152  A    between atoms: _351  and  _354
REMARK  153  A    between atoms: _354  and  _355
REMARK  154  A    between atoms: _355  and  _357
REMARK  155  A    between atoms: _357  and  MN_368
REMARK  156  A    between atoms: _358  and  _360
REMARK  157  A    between atoms: _360  and  _361
REMARK  158  A    between atoms: _360  and  _363
REMARK  159  A    between atoms: _363  and  _364
REMARK  160  A    between atoms: _364  and  _365
REMARK                            x       y       z     vdW  Elec       q    Type
REMARK                         _______ _______ _______ _____ _____    ______ ____
ROOT
ATOM      1  CA  MET A   1     -31.059 -24.265 -34.112  0.00  0.00    +0.134 C 
ENDROOT
BRANCH   1   2
ATOM      2  N   MET A   1     -30.844 -25.675 -33.806  0.00  0.00    -0.239 NA
ATOM      3  H   MET A   1     -30.495 -26.296 -34.564  0.00  0.00    +0.142 HD
ENDBRANCH   1   2
BRANCH   1   4
ATOM      4  C   MET A   1     -31.875 -24.216 -35.386  0.00  0.00    +0.224 C 
ATOM      5  O   MET A   1     -31.552 -24.911 -36.350  0.00  0.00    -0.287 OA
ENDBRANCH   1   4
BRANCH   1   6
ATOM      6  CB  MET A   1     -29.707 -23.582 -34.287  0.00  0.00    +0.037 C 
BRANCH   6   7
ATOM      7  CG  MET A   1     -29.721 -22.107 -34.671  0.00  0.00    +0.059 C 
BRANCH   7   8
ATOM      8  SD  MET A   1     -28.140 -21.226 -34.337  0.00  0.00    -0.139 S 
ATOM      9  CE  MET A   1     -27.548 -22.092 -32.903  0.00  0.00    +0.069 C 
ENDBRANCH   7   8
ENDBRANCH   6   7
ENDBRANCH   1   6
TORSDOF 5
REMARK  Name = ../refined-set-2016/4umc/4umc_pocket.pdb
REMARK  160 active torsions:
REMARK  status: ('A' for Active; 'I' for Inactive)
REMARK    1  A    between atoms: _2  and  _3
REMARK    2  A    between atoms: _8  and  _10
REMARK    3  A    between atoms: _10  and  _11
REMARK    4  A    between atoms: _10  and  _13
REMARK    5  A    between atoms: _13  and  _14
REMARK    6  A    between atoms: _14  and  MN_368
REMARK    7  A    between atoms: _15  and  _17
REMARK    8  A    between atoms: _17  and  _18
REMARK    9  A    between atoms: _17  and  _20
REMARK   10  A    between atoms: _20  and  _21
REMARK   11  A    between atoms: _23  and  _25
REMARK   12  A    between atoms: _25  and  _26
REMARK   13  A    between atoms: _25  and  _28
REMARK   14  A    between atoms: _28  and  _29
REMARK   15  A    between atoms: _29  and  _30
REMARK   16  A    between atoms: _30  and  _31
REMARK   17  A    between atoms: _40  and  _42
REMARK   18  A    between atoms: _42  and  _43
REMARK   19  A    between atoms: _42  and  _45
REMARK   20  A    between atoms: _45  and  _46
REMARK   21  A    between atoms: _51  and  _52
REMARK   22  A    between atoms: _54  and  _56
REMARK   23  A    between atoms: _56  and  _57
REMARK   24  A    between atoms: _56  and  _59
REMARK   25  A    between atoms: _59  and  _60
REMARK   26  A    between atoms: _60  and  _61
REMARK   27  A    between atoms: _64  and  _66
REMARK   28  A    between atoms: _66  and  _67
REMARK   29  A    between atoms: _66  and  _69
REMARK   30  A    between atoms: _69  and  _70
REMARK   31  A    between atoms: _70  and  _71
REMARK   32  A    between atoms: _71  and  _72
REMARK   33  A    between atoms: _72  and  _73
REMARK   34  A    between atoms: _78  and  _79
REMARK   35  A    between atoms: _84  and  _86
REMARK   36  A    between atoms: _86  and  _87
REMARK   37  A    between atoms: _86  and  _89
REMARK   38  A    between atoms: _89  and  _90
REMARK   39  A    between atoms: _90  and  _91
REMARK   40  A    between atoms: _91  and  _92
REMARK   41  A    between atoms: _101  and  _103
REMARK   42  A    between atoms: _103  and  _104
REMARK   43  A    between atoms: _103  and  _106
REMARK   44  A    between atoms: _106  and  _107
REMARK   45  A    between atoms: _110  and  _112
REMARK   46  A    between atoms: _112  and  _113
REMARK   47  A    between atoms: _112  and  _115
REMARK   48  A    between atoms: _115  and  _116
REMARK   49  A    between atoms: _119  and  _121
REMARK   50  A    between atoms: _121  and  _122
REMARK   51  A    between atoms: _121  and  _124
REMARK   52  A    between atoms: _124  and  _125
REMARK   53  A    between atoms: _125  and  _126
REMARK   54  A    between atoms: _129  and  _131
REMARK   55  A    between atoms: _131  and  _132
REMARK   56  A    between atoms: _135  and  _137
REMARK   57  A    between atoms: _137  and  _138
REMARK   58  A    between atoms: _137  and  _140
REMARK   59  A    between atoms: _140  and  _141
REMARK   60  A    between atoms: _144  and  _146
REMARK   61  A    between atoms: _146  and  _147
REMARK   62  A    between atoms: _149  and  _151
REMARK   63  A    between atoms: _151  and  _152
REMARK   64  A    between atoms: _155  and  _157
REMARK   65  A    between atoms: _157  and  _158
REMARK   66  A    between atoms: _157  and  _160
REMARK   67  A    between atoms: _160  and  _161
REMARK   68  A    between atoms: _161  and  _162
REMARK   69  A    between atoms: _162  and  _163
REMARK   70  A    between atoms: _172  and  _174
REMARK   71  A    between atoms: _174  and  _175
REMARK   72  A    between atoms: _174  and  _177
REMARK   73  A    between atoms: _177  and  _178
REMARK   74  A    between atoms: _181  and  _183
REMARK   75  A    between atoms: _183  and  _184
REMARK   76  A    between atoms: _183  and  _186
REMARK   77  A    between atoms: _186  and  _187
REMARK   78  A    between atoms: _190  and  _192
REMARK   79  A    between atoms: _192  and  _193
REMARK   80  A    between atoms: _192  and  _195
REMARK   81  A    between atoms: _195  and  _196
REMARK   82  A    between atoms: _196  and  _197
REMARK   83  A    between atoms: _197  and  _198
REMARK   84  A    between atoms: _198  and  _199
REMARK   85  A    between atoms: _203  and  _205
REMARK   86  A    between atoms: _205  and  _206
REMARK   87  A    between atoms: _205  and  _208
REMARK   88  A    between atoms: _208  and  _209
REMARK   89  A    between atoms: _214  and  _216
REMARK   90  A    between atoms: _216  and  _217
REMARK   91  A    between atoms: _219  and  _221
REMARK   92  A    between atoms: _221  and  _222
REMARK   93  A    between atoms: _221  and  _224
REMARK   94  A    between atoms: _224  and  _225
REMARK   95  A    between atoms: _228  and  _230
REMARK   96  A    between atoms: _230  and  _231
REMARK   97  A    between atoms: _230  and  _233
REMARK   98  A    between atoms: _233  and  _234
REMARK   99  A    between atoms: _237  and  _239
REMARK  100  A    between atoms: _239  and  _240
REMARK  101  A    between atoms: _239  and  _242
REMARK  102  A    between atoms: _242  and  _243
REMARK  103  A    between atoms: _246  and  _248
REMARK  104  A    between atoms: _248  and  _249
REMARK  105  A    between atoms: _248  and  _251
REMARK  106  A    between atoms: _251  and  _252
REMARK  107  A    between atoms: _252  and  _253
REMARK  108  A    between atoms: _253  and  _254
REMARK  109  A    between atoms: _263  and  _265
REMARK  110  A    between atoms: _265  and  _266
REMARK  111  A    between atoms: _268  and  _270
REMARK  112  A    between atoms: _270  and  _271
REMARK  113  A    between atoms: _270  and  _273
REMARK  114  A    between atoms: _273  and  _274
REMARK  115  A    between atoms: _277  and  _279
REMARK  116  A    between atoms: _279  and  _280
REMARK  117  A    between atoms: _279  and  _282
REMARK  118  A    between atoms: _282  and  _283
REMARK  119  A    between atoms: _285  and  _287
REMARK  120  A    between atoms: _287  and  _288
REMARK  121  A    between atoms: _287  and  _290
REMARK  122  A    between atoms: _290  and  _291
REMARK  123  A    between atoms: _295  and  MN_368
REMARK  124  A    between atoms: _296  and  _298
REMARK  125  A    between atoms: _298  and  _299
REMARK  126  A    between atoms: _302  and  _304
REMARK  127  A    between atoms: _304  and  _305
REMARK  128  A    between atoms: _304  and  _307
REMARK  129  A    between atoms: _307  and  _308
REMARK  130  A    between atoms: _313  and  _315
REMARK  131  A    between atoms: _315  and  _316
REMARK  132  A    between atoms: _315  and  _318
REMARK  133  A    between atoms: _318  and  _319
REMARK  134  A    between atoms: _319  and  _320
REMARK  135  A    between atoms: _322  and  _324
REMARK  136  A    between atoms: _324  and  _325
REMARK  137  A    between atoms: _324  and  _327
REMARK  138  A    between atoms: _327  and  _328
REMARK  139  A    between atoms: _328  and  _329
REMARK  140  A    between atoms: _329  and  _331
REMARK  141  A    between atoms: _331  and  MN_368
REMARK  142  A    between atoms: _332  and  _334
REMARK  143  A    between atoms: _334  and  _335
REMARK  144  A    between atoms: _334  and  _337
REMARK  145  A    between atoms: _337  and  _338
REMARK  146  A    between atoms: _340  and  _342
REMARK  147  A    between atoms: _342  and  _343
REMARK  148  A    between atoms: _342  and  _345
REMARK  149  A    between atoms: _345  and  _346
REMARK  150  A    between atoms: _349  and  _351
REMARK  151  A    between atoms: _351  and  _352
REMARK  152  A    between atoms: _351  and  _354
REMARK  153  A    between atoms: _354  and  _355
REMARK  154  A    between atoms: _355  and  _357
REMARK  155  A    between atoms: _357  and  MN_368
REMARK  156  A    between atoms: _358  and  _360
REMARK  157  A    between atoms: _360  and  _361
REMARK  158  A    between atoms: _360  and  _363
REMARK  159  A    between atoms: _363  and  _364
REMARK  160  A    between atoms: _364  and  _365
REMARK                            x       y       z     vdW  Elec       q    Type
REMARK                         _______ _______ _______ _____ _____    ______ ____
ROOT
ATOM      1  CA  SER A   1     -37.327 -11.812 -42.570  0.00  0.00    +0.163 C 
ENDROOT
BRANCH   1   2
ATOM      2  N   SER A   1     -38.762 -12.181 -42.807  0.00  0.00    -0.237 NA
ATOM      3  H   SER A   1     -38.994 -13.180 -42.979  0.00  0.00    +0.142 HD
ENDBRANCH   1   2
BRANCH   1   4
ATOM      4  C   SER A   1     -36.783 -10.832 -43.604  0.00  0.00    +0.227 C 
ATOM      5  O   SER A   1     -37.081 -10.951 -44.803  0.00  0.00    -0.287 OA
ENDBRANCH   1   4
BRANCH   1   6
ATOM      6  CB  SER A   1     -36.432 -13.071 -42.537  0.00  0.00    +0.162 C 
BRANCH   6   7
ATOM      7  OG  SER A   1     -35.056 -12.747 -42.360  0.00  0.00    -0.380 OA
ATOM      8  H   SER A   1     -34.521 -13.580 -42.345  0.00  0.00    +0.211 HD
ENDBRANCH   6   7
ENDBRANCH   1   6
TORSDOF 4
REMARK  Name = ../refined-set-2016/4umc/4umc_pocket.pdb
REMARK  160 active torsions:
REMARK  status: ('A' for Active; 'I' for Inactive)
REMARK    1  A    between atoms: _2  and  _3
REMARK    2  A    between atoms: _8  and  _10
REMARK    3  A    between atoms: _10  and  _11
REMARK    4  A    between atoms: _10  and  _13
REMARK    5  A    between atoms: _13  and  _14
REMARK    6  A    between atoms: _14  and  MN_368
REMARK    7  A    between atoms: _15  and  _17
REMARK    8  A    between atoms: _17  and  _18
REMARK    9  A    between atoms: _17  and  _20
REMARK   10  A    between atoms: _20  and  _21
REMARK   11  A    between atoms: _23  and  _25
REMARK   12  A    between atoms: _25  and  _26
REMARK   13  A    between atoms: _25  and  _28
REMARK   14  A    between atoms: _28  and  _29
REMARK   15  A    between atoms: _29  and  _30
REMARK   16  A    between atoms: _30  and  _31
REMARK   17  A    between atoms: _40  and  _42
REMARK   18  A    between atoms: _42  and  _43
REMARK   19  A    between atoms: _42  and  _45
REMARK   20  A    between atoms: _45  and  _46
REMARK   21  A    between atoms: _51  and  _52
REMARK   22  A    between atoms: _54  and  _56
REMARK   23  A    between atoms: _56  and  _57
REMARK   24  A    between atoms: _56  and  _59
REMARK   25  A    between atoms: _59  and  _60
REMARK   26  A    between atoms: _60  and  _61
REMARK   27  A    between atoms: _64  and  _66
REMARK   28  A    between atoms: _66  and  _67
REMARK   29  A    between atoms: _66  and  _69
REMARK   30  A    between atoms: _69  and  _70
REMARK   31  A    between atoms: _70  and  _71
REMARK   32  A    between atoms: _71  and  _72
REMARK   33  A    between atoms: _72  and  _73
REMARK   34  A    between atoms: _78  and  _79
REMARK   35  A    between atoms: _84  and  _86
REMARK   36  A    between atoms: _86  and  _87
REMARK   37  A    between atoms: _86  and  _89
REMARK   38  A    between atoms: _89  and  _90
REMARK   39  A    between atoms: _90  and  _91
REMARK   40  A    between atoms: _91  and  _92
REMARK   41  A    between atoms: _101  and  _103
REMARK   42  A    between atoms: _103  and  _104
REMARK   43  A    between atoms: _103  and  _106
REMARK   44  A    between atoms: _106  and  _107
REMARK   45  A    between atoms: _110  and  _112
REMARK   46  A    between atoms: _112  and  _113
REMARK   47  A    between atoms: _112  and  _115
REMARK   48  A    between atoms: _115  and  _116
REMARK   49  A    between atoms: _119  and  _121
REMARK   50  A    between atoms: _121  and  _122
REMARK   51  A    between atoms: _121  and  _124
REMARK   52  A    between atoms: _124  and  _125
REMARK   53  A    between atoms: _125  and  _126
REMARK   54  A    between atoms: _129  and  _131
REMARK   55  A    between atoms: _131  and  _132
REMARK   56  A    between atoms: _135  and  _137
REMARK   57  A    between atoms: _137  and  _138
REMARK   58  A    between atoms: _137  and  _140
REMARK   59  A    between atoms: _140  and  _141
REMARK   60  A    between atoms: _144  and  _146
REMARK   61  A    between atoms: _146  and  _147
REMARK   62  A    between atoms: _149  and  _151
REMARK   63  A    between atoms: _151  and  _152
REMARK   64  A    between atoms: _155  and  _157
REMARK   65  A    between atoms: _157  and  _158
REMARK   66  A    between atoms: _157  and  _160
REMARK   67  A    between atoms: _160  and  _161
REMARK   68  A    between atoms: _161  and  _162
REMARK   69  A    between atoms: _162  and  _163
REMARK   70  A    between atoms: _172  and  _174
REMARK   71  A    between atoms: _174  and  _175
REMARK   72  A    between atoms: _174  and  _177
REMARK   73  A    between atoms: _177  and  _178
REMARK   74  A    between atoms: _181  and  _183
REMARK   75  A    between atoms: _183  and  _184
REMARK   76  A    between atoms: _183  and  _186
REMARK   77  A    between atoms: _186  and  _187
REMARK   78  A    between atoms: _190  and  _192
REMARK   79  A    between atoms: _192  and  _193
REMARK   80  A    between atoms: _192  and  _195
REMARK   81  A    between atoms: _195  and  _196
REMARK   82  A    between atoms: _196  and  _197
REMARK   83  A    between atoms: _197  and  _198
REMARK   84  A    between atoms: _198  and  _199
REMARK   85  A    between atoms: _203  and  _205
REMARK   86  A    between atoms: _205  and  _206
REMARK   87  A    between atoms: _205  and  _208
REMARK   88  A    between atoms: _208  and  _209
REMARK   89  A    between atoms: _214  and  _216
REMARK   90  A    between atoms: _216  and  _217
REMARK   91  A    between atoms: _219  and  _221
REMARK   92  A    between atoms: _221  and  _222
REMARK   93  A    between atoms: _221  and  _224
REMARK   94  A    between atoms: _224  and  _225
REMARK   95  A    between atoms: _228  and  _230
REMARK   96  A    between atoms: _230  and  _231
REMARK   97  A    between atoms: _230  and  _233
REMARK   98  A    between atoms: _233  and  _234
REMARK   99  A    between atoms: _237  and  _239
REMARK  100  A    between atoms: _239  and  _240
REMARK  101  A    between atoms: _239  and  _242
REMARK  102  A    between atoms: _242  and  _243
REMARK  103  A    between atoms: _246  and  _248
REMARK  104  A    between atoms: _248  and  _249
REMARK  105  A    between atoms: _248  and  _251
REMARK  106  A    between atoms: _251  and  _252
REMARK  107  A    between atoms: _252  and  _253
REMARK  108  A    between atoms: _253  and  _254
REMARK  109  A    between atoms: _263  and  _265
REMARK  110  A    between atoms: _265  and  _266
REMARK  111  A    between atoms: _268  and  _270
REMARK  112  A    between atoms: _270  and  _271
REMARK  113  A    between atoms: _270  and  _273
REMARK  114  A    between atoms: _273  and  _274
REMARK  115  A    between atoms: _277  and  _279
REMARK  116  A    between atoms: _279  and  _280
REMARK  117  A    between atoms: _279  and  _282
REMARK  118  A    between atoms: _282  and  _283
REMARK  119  A    between atoms: _285  and  _287
REMARK  120  A    between atoms: _287  and  _288
REMARK  121  A    between atoms: _287  and  _290
REMARK  122  A    between atoms: _290  and  _291
REMARK  123  A    between atoms: _295  and  MN_368
REMARK  124  A    between atoms: _296  and  _298
REMARK  125  A    between atoms: _298  and  _299
REMARK  126  A    between atoms: _302  and  _304
REMARK  127  A    between atoms: _304  and  _305
REMARK  128  A    between atoms: _304  and  _307
REMARK  129  A    between atoms: _307  and  _308
REMARK  130  A    between atoms: _313  and  _315
REMARK  131  A    between atoms: _315  and  _316
REMARK  132  A    between atoms: _315  and  _318
REMARK  133  A    between atoms: _318  and  _319
REMARK  134  A    between atoms: _319  and  _320
REMARK  135  A    between atoms: _322  and  _324
REMARK  136  A    between atoms: _324  and  _325
REMARK  137  A    between atoms: _324  and  _327
REMARK  138  A    between atoms: _327  and  _328
REMARK  139  A    between atoms: _328  and  _329
REMARK  140  A    between atoms: _329  and  _331
REMARK  141  A    between atoms: _331  and  MN_368
REMARK  142  A    between atoms: _332  and  _334
REMARK  143  A    between atoms: _334  and  _335
REMARK  144  A    between atoms: _334  and  _337
REMARK  145  A    between atoms: _337  and  _338
REMARK  146  A    between atoms: _340  and  _342
REMARK  147  A    between atoms: _342  and  _343
REMARK  148  A    between atoms: _342  and  _345
REMARK  149  A    between atoms: _345  and  _346
REMARK  150  A    between atoms: _349  and  _351
REMARK  151  A    between atoms: _351  and  _352
REMARK  152  A    between atoms: _351  and  _354
REMARK  153  A    between atoms: _354  and  _355
REMARK  154  A    between atoms: _355  and  _357
REMARK  155  A    between atoms: _357  and  MN_368
REMARK  156  A    between atoms: _358  and  _360
REMARK  157  A    between atoms: _360  and  _361
REMARK  158  A    between atoms: _360  and  _363
REMARK  159  A    between atoms: _363  and  _364
REMARK  160  A    between atoms: _364  and  _365
REMARK                            x       y       z     vdW  Elec       q    Type
REMARK                         _______ _______ _______ _____ _____    ______ ____
ROOT
ATOM      1  CA  GLU A   1     -13.593 -11.968 -40.646  0.00  0.00    +0.134 C 
ENDROOT
BRANCH   1   2
ATOM      2  N   GLU A   1     -12.180 -11.758 -40.301  0.00  0.00    -0.239 NA
ATOM      3  H   GLU A   1     -11.657 -12.522 -39.826  0.00  0.00    +0.142 HD
ENDBRANCH   1   2
BRANCH   1   4
ATOM      4  C   GLU A   1     -14.522 -11.242 -39.653  0.00  0.00    +0.224 C 
ATOM      5  O   GLU A   1     -15.718 -11.109 -39.931  0.00  0.00    -0.287 OA
ENDBRANCH   1   4
BRANCH   1   6
ATOM      6  CB  GLU A   1     -13.930 -13.467 -40.706  0.00  0.00    +0.037 C 
BRANCH   6   7
ATOM      7  CG  GLU A   1     -15.100 -13.849 -41.611  0.00  0.00    +0.116 C 
BRANCH   7   8
ATOM      8  CD  GLU A   1     -15.244 -15.359 -41.776  0.00  0.00    +0.365 C 
ATOM      9  OE2 GLU A   1     -14.489 -16.116 -41.116  0.00  0.00    -0.246 OA
ATOM     10  OE1 GLU A   1     -16.111 -15.798 -42.566  0.00  0.00    -0.246 OA
ENDBRANCH   7   8
ENDBRANCH   6   7
ENDBRANCH   1   6
TORSDOF 5
REMARK  Name = ../refined-set-2016/4umc/4umc_pocket.pdb
REMARK  160 active torsions:
REMARK  status: ('A' for Active; 'I' for Inactive)
REMARK    1  A    between atoms: _2  and  _3
REMARK    2  A    between atoms: _8  and  _10
REMARK    3  A    between atoms: _10  and  _11
REMARK    4  A    between atoms: _10  and  _13
REMARK    5  A    between atoms: _13  and  _14
REMARK    6  A    between atoms: _14  and  MN_368
REMARK    7  A    between atoms: _15  and  _17
REMARK    8  A    between atoms: _17  and  _18
REMARK    9  A    between atoms: _17  and  _20
REMARK   10  A    between atoms: _20  and  _21
REMARK   11  A    between atoms: _23  and  _25
REMARK   12  A    between atoms: _25  and  _26
REMARK   13  A    between atoms: _25  and  _28
REMARK   14  A    between atoms: _28  and  _29
REMARK   15  A    between atoms: _29  and  _30
REMARK   16  A    between atoms: _30  and  _31
REMARK   17  A    between atoms: _40  and  _42
REMARK   18  A    between atoms: _42  and  _43
REMARK   19  A    between atoms: _42  and  _45
REMARK   20  A    between atoms: _45  and  _46
REMARK   21  A    between atoms: _51  and  _52
REMARK   22  A    between atoms: _54  and  _56
REMARK   23  A    between atoms: _56  and  _57
REMARK   24  A    between atoms: _56  and  _59
REMARK   25  A    between atoms: _59  and  _60
REMARK   26  A    between atoms: _60  and  _61
REMARK   27  A    between atoms: _64  and  _66
REMARK   28  A    between atoms: _66  and  _67
REMARK   29  A    between atoms: _66  and  _69
REMARK   30  A    between atoms: _69  and  _70
REMARK   31  A    between atoms: _70  and  _71
REMARK   32  A    between atoms: _71  and  _72
REMARK   33  A    between atoms: _72  and  _73
REMARK   34  A    between atoms: _78  and  _79
REMARK   35  A    between atoms: _84  and  _86
REMARK   36  A    between atoms: _86  and  _87
REMARK   37  A    between atoms: _86  and  _89
REMARK   38  A    between atoms: _89  and  _90
REMARK   39  A    between atoms: _90  and  _91
REMARK   40  A    between atoms: _91  and  _92
REMARK   41  A    between atoms: _101  and  _103
REMARK   42  A    between atoms: _103  and  _104
REMARK   43  A    between atoms: _103  and  _106
REMARK   44  A    between atoms: _106  and  _107
REMARK   45  A    between atoms: _110  and  _112
REMARK   46  A    between atoms: _112  and  _113
REMARK   47  A    between atoms: _112  and  _115
REMARK   48  A    between atoms: _115  and  _116
REMARK   49  A    between atoms: _119  and  _121
REMARK   50  A    between atoms: _121  and  _122
REMARK   51  A    between atoms: _121  and  _124
REMARK   52  A    between atoms: _124  and  _125
REMARK   53  A    between atoms: _125  and  _126
REMARK   54  A    between atoms: _129  and  _131
REMARK   55  A    between atoms: _131  and  _132
REMARK   56  A    between atoms: _135  and  _137
REMARK   57  A    between atoms: _137  and  _138
REMARK   58  A    between atoms: _137  and  _140
REMARK   59  A    between atoms: _140  and  _141
REMARK   60  A    between atoms: _144  and  _146
REMARK   61  A    between atoms: _146  and  _147
REMARK   62  A    between atoms: _149  and  _151
REMARK   63  A    between atoms: _151  and  _152
REMARK   64  A    between atoms: _155  and  _157
REMARK   65  A    between atoms: _157  and  _158
REMARK   66  A    between atoms: _157  and  _160
REMARK   67  A    between atoms: _160  and  _161
REMARK   68  A    between atoms: _161  and  _162
REMARK   69  A    between atoms: _162  and  _163
REMARK   70  A    between atoms: _172  and  _174
REMARK   71  A    between atoms: _174  and  _175
REMARK   72  A    between atoms: _174  and  _177
REMARK   73  A    between atoms: _177  and  _178
REMARK   74  A    between atoms: _181  and  _183
REMARK   75  A    between atoms: _183  and  _184
REMARK   76  A    between atoms: _183  and  _186
REMARK   77  A    between atoms: _186  and  _187
REMARK   78  A    between atoms: _190  and  _192
REMARK   79  A    between atoms: _192  and  _193
REMARK   80  A    between atoms: _192  and  _195
REMARK   81  A    between atoms: _195  and  _196
REMARK   82  A    between atoms: _196  and  _197
REMARK   83  A    between atoms: _197  and  _198
REMARK   84  A    between atoms: _198  and  _199
REMARK   85  A    between atoms: _203  and  _205
REMARK   86  A    between atoms: _205  and  _206
REMARK   87  A    between atoms: _205  and  _208
REMARK   88  A    between atoms: _208  and  _209
REMARK   89  A    between atoms: _214  and  _216
REMARK   90  A    between atoms: _216  and  _217
REMARK   91  A    between atoms: _219  and  _221
REMARK   92  A    between atoms: _221  and  _222
REMARK   93  A    between atoms: _221  and  _224
REMARK   94  A    between atoms: _224  and  _225
REMARK   95  A    between atoms: _228  and  _230
REMARK   96  A    between atoms: _230  and  _231
REMARK   97  A    between atoms: _230  and  _233
REMARK   98  A    between atoms: _233  and  _234
REMARK   99  A    between atoms: _237  and  _239
REMARK  100  A    between atoms: _239  and  _240
REMARK  101  A    between atoms: _239  and  _242
REMARK  102  A    between atoms: _242  and  _243
REMARK  103  A    between atoms: _246  and  _248
REMARK  104  A    between atoms: _248  and  _249
REMARK  105  A    between atoms: _248  and  _251
REMARK  106  A    between atoms: _251  and  _252
REMARK  107  A    between atoms: _252  and  _253
REMARK  108  A    between atoms: _253  and  _254
REMARK  109  A    between atoms: _263  and  _265
REMARK  110  A    between atoms: _265  and  _266
REMARK  111  A    between atoms: _268  and  _270
REMARK  112  A    between atoms: _270  and  _271
REMARK  113  A    between atoms: _270  and  _273
REMARK  114  A    between atoms: _273  and  _274
REMARK  115  A    between atoms: _277  and  _279
REMARK  116  A    between atoms: _279  and  _280
REMARK  117  A    between atoms: _279  and  _282
REMARK  118  A    between atoms: _282  and  _283
REMARK  119  A    between atoms: _285  and  _287
REMARK  120  A    between atoms: _287  and  _288
REMARK  121  A    between atoms: _287  and  _290
REMARK  122  A    between atoms: _290  and  _291
REMARK  123  A    between atoms: _295  and  MN_368
REMARK  124  A    between atoms: _296  and  _298
REMARK  125  A    between atoms: _298  and  _299
REMARK  126  A    between atoms: _302  and  _304
REMARK  127  A    between atoms: _304  and  _305
REMARK  128  A    between atoms: _304  and  _307
REMARK  129  A    between atoms: _307  and  _308
REMARK  130  A    between atoms: _313  and  _315
REMARK  131  A    between atoms: _315  and  _316
REMARK  132  A    between atoms: _315  and  _318
REMARK  133  A    between atoms: _318  and  _319
REMARK  134  A    between atoms: _319  and  _320
REMARK  135  A    between atoms: _322  and  _324
REMARK  136  A    between atoms: _324  and  _325
REMARK  137  A    between atoms: _324  and  _327
REMARK  138  A    between atoms: _327  and  _328
REMARK  139  A    between atoms: _328  and  _329
REMARK  140  A    between atoms: _329  and  _331
REMARK  141  A    between atoms: _331  and  MN_368
REMARK  142  A    between atoms: _332  and  _334
REMARK  143  A    between atoms: _334  and  _335
REMARK  144  A    between atoms: _334  and  _337
REMARK  145  A    between atoms: _337  and  _338
REMARK  146  A    between atoms: _340  and  _342
REMARK  147  A    between atoms: _342  and  _343
REMARK  148  A    between atoms: _342  and  _345
REMARK  149  A    between atoms: _345  and  _346
REMARK  150  A    between atoms: _349  and  _351
REMARK  151  A    between atoms: _351  and  _352
REMARK  152  A    between atoms: _351  and  _354
REMARK  153  A    between atoms: _354  and  _355
REMARK  154  A    between atoms: _355  and  _357
REMARK  155  A    between atoms: _357  and  MN_368
REMARK  156  A    between atoms: _358  and  _360
REMARK  157  A    between atoms: _360  and  _361
REMARK  158  A    between atoms: _360  and  _363
REMARK  159  A    between atoms: _363  and  _364
REMARK  160  A    between atoms: _364  and  _365
REMARK                            x       y       z     vdW  Elec       q    Type
REMARK                         _______ _______ _______ _____ _____    ______ ____
ROOT
ATOM      1  O   HOH     1     -35.425 -12.685 -39.557  0.00  0.00    +0.000 OA
ENDROOT
TORSDOF 0
REMARK  Name = ../refined-set-2016/4umc/4umc_pocket.pdb
REMARK  160 active torsions:
REMARK  status: ('A' for Active; 'I' for Inactive)
REMARK    1  A    between atoms: _2  and  _3
REMARK    2  A    between atoms: _8  and  _10
REMARK    3  A    between atoms: _10  and  _11
REMARK    4  A    between atoms: _10  and  _13
REMARK    5  A    between atoms: _13  and  _14
REMARK    6  A    between atoms: _14  and  MN_368
REMARK    7  A    between atoms: _15  and  _17
REMARK    8  A    between atoms: _17  and  _18
REMARK    9  A    between atoms: _17  and  _20
REMARK   10  A    between atoms: _20  and  _21
REMARK   11  A    between atoms: _23  and  _25
REMARK   12  A    between atoms: _25  and  _26
REMARK   13  A    between atoms: _25  and  _28
REMARK   14  A    between atoms: _28  and  _29
REMARK   15  A    between atoms: _29  and  _30
REMARK   16  A    between atoms: _30  and  _31
REMARK   17  A    between atoms: _40  and  _42
REMARK   18  A    between atoms: _42  and  _43
REMARK   19  A    between atoms: _42  and  _45
REMARK   20  A    between atoms: _45  and  _46
REMARK   21  A    between atoms: _51  and  _52
REMARK   22  A    between atoms: _54  and  _56
REMARK   23  A    between atoms: _56  and  _57
REMARK   24  A    between atoms: _56  and  _59
REMARK   25  A    between atoms: _59  and  _60
REMARK   26  A    between atoms: _60  and  _61
REMARK   27  A    between atoms: _64  and  _66
REMARK   28  A    between atoms: _66  and  _67
REMARK   29  A    between atoms: _66  and  _69
REMARK   30  A    between atoms: _69  and  _70
REMARK   31  A    between atoms: _70  and  _71
REMARK   32  A    between atoms: _71  and  _72
REMARK   33  A    between atoms: _72  and  _73
REMARK   34  A    between atoms: _78  and  _79
REMARK   35  A    between atoms: _84  and  _86
REMARK   36  A    between atoms: _86  and  _87
REMARK   37  A    between atoms: _86  and  _89
REMARK   38  A    between atoms: _89  and  _90
REMARK   39  A    between atoms: _90  and  _91
REMARK   40  A    between atoms: _91  and  _92
REMARK   41  A    between atoms: _101  and  _103
REMARK   42  A    between atoms: _103  and  _104
REMARK   43  A    between atoms: _103  and  _106
REMARK   44  A    between atoms: _106  and  _107
REMARK   45  A    between atoms: _110  and  _112
REMARK   46  A    between atoms: _112  and  _113
REMARK   47  A    between atoms: _112  and  _115
REMARK   48  A    between atoms: _115  and  _116
REMARK   49  A    between atoms: _119  and  _121
REMARK   50  A    between atoms: _121  and  _122
REMARK   51  A    between atoms: _121  and  _124
REMARK   52  A    between atoms: _124  and  _125
REMARK   53  A    between atoms: _125  and  _126
REMARK   54  A    between atoms: _129  and  _131
REMARK   55  A    between atoms: _131  and  _132
REMARK   56  A    between atoms: _135  and  _137
REMARK   57  A    between atoms: _137  and  _138
REMARK   58  A    between atoms: _137  and  _140
REMARK   59  A    between atoms: _140  and  _141
REMARK   60  A    between atoms: _144  and  _146
REMARK   61  A    between atoms: _146  and  _147
REMARK   62  A    between atoms: _149  and  _151
REMARK   63  A    between atoms: _151  and  _152
REMARK   64  A    between atoms: _155  and  _157
REMARK   65  A    between atoms: _157  and  _158
REMARK   66  A    between atoms: _157  and  _160
REMARK   67  A    between atoms: _160  and  _161
REMARK   68  A    between atoms: _161  and  _162
REMARK   69  A    between atoms: _162  and  _163
REMARK   70  A    between atoms: _172  and  _174
REMARK   71  A    between atoms: _174  and  _175
REMARK   72  A    between atoms: _174  and  _177
REMARK   73  A    between atoms: _177  and  _178
REMARK   74  A    between atoms: _181  and  _183
REMARK   75  A    between atoms: _183  and  _184
REMARK   76  A    between atoms: _183  and  _186
REMARK   77  A    between atoms: _186  and  _187
REMARK   78  A    between atoms: _190  and  _192
REMARK   79  A    between atoms: _192  and  _193
REMARK   80  A    between atoms: _192  and  _195
REMARK   81  A    between atoms: _195  and  _196
REMARK   82  A    between atoms: _196  and  _197
REMARK   83  A    between atoms: _197  and  _198
REMARK   84  A    between atoms: _198  and  _199
REMARK   85  A    between atoms: _203  and  _205
REMARK   86  A    between atoms: _205  and  _206
REMARK   87  A    between atoms: _205  and  _208
REMARK   88  A    between atoms: _208  and  _209
REMARK   89  A    between atoms: _214  and  _216
REMARK   90  A    between atoms: _216  and  _217
REMARK   91  A    between atoms: _219  and  _221
REMARK   92  A    between atoms: _221  and  _222
REMARK   93  A    between atoms: _221  and  _224
REMARK   94  A    between atoms: _224  and  _225
REMARK   95  A    between atoms: _228  and  _230
REMARK   96  A    between atoms: _230  and  _231
REMARK   97  A    between atoms: _230  and  _233
REMARK   98  A    between atoms: _233  and  _234
REMARK   99  A    between atoms: _237  and  _239
REMARK  100  A    between atoms: _239  and  _240
REMARK  101  A    between atoms: _239  and  _242
REMARK  102  A    between atoms: _242  and  _243
REMARK  103  A    between atoms: _246  and  _248
REMARK  104  A    between atoms: _248  and  _249
REMARK  105  A    between atoms: _248  and  _251
REMARK  106  A    between atoms: _251  and  _252
REMARK  107  A    between atoms: _252  and  _253
REMARK  108  A    between atoms: _253  and  _254
REMARK  109  A    between atoms: _263  and  _265
REMARK  110  A    between atoms: _265  and  _266
REMARK  111  A    between atoms: _268  and  _270
REMARK  112  A    between atoms: _270  and  _271
REMARK  113  A    between atoms: _270  and  _273
REMARK  114  A    between atoms: _273  and  _274
REMARK  115  A    between atoms: _277  and  _279
REMARK  116  A    between atoms: _279  and  _280
REMARK  117  A    between atoms: _279  and  _282
REMARK  118  A    between atoms: _282  and  _283
REMARK  119  A    between atoms: _285  and  _287
REMARK  120  A    between atoms: _287  and  _288
REMARK  121  A    between atoms: _287  and  _290
REMARK  122  A    between atoms: _290  and  _291
REMARK  123  A    between atoms: _295  and  MN_368
REMARK  124  A    between atoms: _296  and  _298
REMARK  125  A    between atoms: _298  and  _299
REMARK  126  A    between atoms: _302  and  _304
REMARK  127  A    between atoms: _304  and  _305
REMARK  128  A    between atoms: _304  and  _307
REMARK  129  A    between atoms: _307  and  _308
REMARK  130  A    between atoms: _313  and  _315
REMARK  131  A    between atoms: _315  and  _316
REMARK  132  A    between atoms: _315  and  _318
REMARK  133  A    between atoms: _318  and  _319
REMARK  134  A    between atoms: _319  and  _320
REMARK  135  A    between atoms: _322  and  _324
REMARK  136  A    between atoms: _324  and  _325
REMARK  137  A    between atoms: _324  and  _327
REMARK  138  A    between atoms: _327  and  _328
REMARK  139  A    between atoms: _328  and  _329
REMARK  140  A    between atoms: _329  and  _331
REMARK  141  A    between atoms: _331  and  MN_368
REMARK  142  A    between atoms: _332  and  _334
REMARK  143  A    between atoms: _334  and  _335
REMARK  144  A    between atoms: _334  and  _337
REMARK  145  A    between atoms: _337  and  _338
REMARK  146  A    between atoms: _340  and  _342
REMARK  147  A    between atoms: _342  and  _343
REMARK  148  A    between atoms: _342  and  _345
REMARK  149  A    between atoms: _345  and  _346
REMARK  150  A    between atoms: _349  and  _351
REMARK  151  A    between atoms: _351  and  _352
REMARK  152  A    between atoms: _351  and  _354
REMARK  153  A    between atoms: _354  and  _355
REMARK  154  A    between atoms: _355  and  _357
REMARK  155  A    between atoms: _357  and  MN_368
REMARK  156  A    between atoms: _358  and  _360
REMARK  157  A    between atoms: _360  and  _361
REMARK  158  A    between atoms: _360  and  _363
REMARK  159  A    between atoms: _363  and  _364
REMARK  160  A    between atoms: _364  and  _365
REMARK                            x       y       z     vdW  Elec       q    Type
REMARK                         _______ _______ _______ _____ _____    ______ ____
ROOT
ATOM      1  O   HOH     1     -26.069 -18.054 -34.660  0.00  0.00    +0.000 OA
ENDROOT
TORSDOF 0
REMARK  Name = ../refined-set-2016/4umc/4umc_pocket.pdb
REMARK  160 active torsions:
REMARK  status: ('A' for Active; 'I' for Inactive)
REMARK    1  A    between atoms: _2  and  _3
REMARK    2  A    between atoms: _8  and  _10
REMARK    3  A    between atoms: _10  and  _11
REMARK    4  A    between atoms: _10  and  _13
REMARK    5  A    between atoms: _13  and  _14
REMARK    6  A    between atoms: _14  and  MN_368
REMARK    7  A    between atoms: _15  and  _17
REMARK    8  A    between atoms: _17  and  _18
REMARK    9  A    between atoms: _17  and  _20
REMARK   10  A    between atoms: _20  and  _21
REMARK   11  A    between atoms: _23  and  _25
REMARK   12  A    between atoms: _25  and  _26
REMARK   13  A    between atoms: _25  and  _28
REMARK   14  A    between atoms: _28  and  _29
REMARK   15  A    between atoms: _29  and  _30
REMARK   16  A    between atoms: _30  and  _31
REMARK   17  A    between atoms: _40  and  _42
REMARK   18  A    between atoms: _42  and  _43
REMARK   19  A    between atoms: _42  and  _45
REMARK   20  A    between atoms: _45  and  _46
REMARK   21  A    between atoms: _51  and  _52
REMARK   22  A    between atoms: _54  and  _56
REMARK   23  A    between atoms: _56  and  _57
REMARK   24  A    between atoms: _56  and  _59
REMARK   25  A    between atoms: _59  and  _60
REMARK   26  A    between atoms: _60  and  _61
REMARK   27  A    between atoms: _64  and  _66
REMARK   28  A    between atoms: _66  and  _67
REMARK   29  A    between atoms: _66  and  _69
REMARK   30  A    between atoms: _69  and  _70
REMARK   31  A    between atoms: _70  and  _71
REMARK   32  A    between atoms: _71  and  _72
REMARK   33  A    between atoms: _72  and  _73
REMARK   34  A    between atoms: _78  and  _79
REMARK   35  A    between atoms: _84  and  _86
REMARK   36  A    between atoms: _86  and  _87
REMARK   37  A    between atoms: _86  and  _89
REMARK   38  A    between atoms: _89  and  _90
REMARK   39  A    between atoms: _90  and  _91
REMARK   40  A    between atoms: _91  and  _92
REMARK   41  A    between atoms: _101  and  _103
REMARK   42  A    between atoms: _103  and  _104
REMARK   43  A    between atoms: _103  and  _106
REMARK   44  A    between atoms: _106  and  _107
REMARK   45  A    between atoms: _110  and  _112
REMARK   46  A    between atoms: _112  and  _113
REMARK   47  A    between atoms: _112  and  _115
REMARK   48  A    between atoms: _115  and  _116
REMARK   49  A    between atoms: _119  and  _121
REMARK   50  A    between atoms: _121  and  _122
REMARK   51  A    between atoms: _121  and  _124
REMARK   52  A    between atoms: _124  and  _125
REMARK   53  A    between atoms: _125  and  _126
REMARK   54  A    between atoms: _129  and  _131
REMARK   55  A    between atoms: _131  and  _132
REMARK   56  A    between atoms: _135  and  _137
REMARK   57  A    between atoms: _137  and  _138
REMARK   58  A    between atoms: _137  and  _140
REMARK   59  A    between atoms: _140  and  _141
REMARK   60  A    between atoms: _144  and  _146
REMARK   61  A    between atoms: _146  and  _147
REMARK   62  A    between atoms: _149  and  _151
REMARK   63  A    between atoms: _151  and  _152
REMARK   64  A    between atoms: _155  and  _157
REMARK   65  A    between atoms: _157  and  _158
REMARK   66  A    between atoms: _157  and  _160
REMARK   67  A    between atoms: _160  and  _161
REMARK   68  A    between atoms: _161  and  _162
REMARK   69  A    between atoms: _162  and  _163
REMARK   70  A    between atoms: _172  and  _174
REMARK   71  A    between atoms: _174  and  _175
REMARK   72  A    between atoms: _174  and  _177
REMARK   73  A    between atoms: _177  and  _178
REMARK   74  A    between atoms: _181  and  _183
REMARK   75  A    between atoms: _183  and  _184
REMARK   76  A    between atoms: _183  and  _186
REMARK   77  A    between atoms: _186  and  _187
REMARK   78  A    between atoms: _190  and  _192
REMARK   79  A    between atoms: _192  and  _193
REMARK   80  A    between atoms: _192  and  _195
REMARK   81  A    between atoms: _195  and  _196
REMARK   82  A    between atoms: _196  and  _197
REMARK   83  A    between atoms: _197  and  _198
REMARK   84  A    between atoms: _198  and  _199
REMARK   85  A    between atoms: _203  and  _205
REMARK   86  A    between atoms: _205  and  _206
REMARK   87  A    between atoms: _205  and  _208
REMARK   88  A    between atoms: _208  and  _209
REMARK   89  A    between atoms: _214  and  _216
REMARK   90  A    between atoms: _216  and  _217
REMARK   91  A    between atoms: _219  and  _221
REMARK   92  A    between atoms: _221  and  _222
REMARK   93  A    between atoms: _221  and  _224
REMARK   94  A    between atoms: _224  and  _225
REMARK   95  A    between atoms: _228  and  _230
REMARK   96  A    between atoms: _230  and  _231
REMARK   97  A    between atoms: _230  and  _233
REMARK   98  A    between atoms: _233  and  _234
REMARK   99  A    between atoms: _237  and  _239
REMARK  100  A    between atoms: _239  and  _240
REMARK  101  A    between atoms: _239  and  _242
REMARK  102  A    between atoms: _242  and  _243
REMARK  103  A    between atoms: _246  and  _248
REMARK  104  A    between atoms: _248  and  _249
REMARK  105  A    between atoms: _248  and  _251
REMARK  106  A    between atoms: _251  and  _252
REMARK  107  A    between atoms: _252  and  _253
REMARK  108  A    between atoms: _253  and  _254
REMARK  109  A    between atoms: _263  and  _265
REMARK  110  A    between atoms: _265  and  _266
REMARK  111  A    between atoms: _268  and  _270
REMARK  112  A    between atoms: _270  and  _271
REMARK  113  A    between atoms: _270  and  _273
REMARK  114  A    between atoms: _273  and  _274
REMARK  115  A    between atoms: _277  and  _279
REMARK  116  A    between atoms: _279  and  _280
REMARK  117  A    between atoms: _279  and  _282
REMARK  118  A    between atoms: _282  and  _283
REMARK  119  A    between atoms: _285  and  _287
REMARK  120  A    between atoms: _287  and  _288
REMARK  121  A    between atoms: _287  and  _290
REMARK  122  A    between atoms: _290  and  _291
REMARK  123  A    between atoms: _295  and  MN_368
REMARK  124  A    between atoms: _296  and  _298
REMARK  125  A    between atoms: _298  and  _299
REMARK  126  A    between atoms: _302  and  _304
REMARK  127  A    between atoms: _304  and  _305
REMARK  128  A    between atoms: _304  and  _307
REMARK  129  A    between atoms: _307  and  _308
REMARK  130  A    between atoms: _313  and  _315
REMARK  131  A    between atoms: _315  and  _316
REMARK  132  A    between atoms: _315  and  _318
REMARK  133  A    between atoms: _318  and  _319
REMARK  134  A    between atoms: _319  and  _320
REMARK  135  A    between atoms: _322  and  _324
REMARK  136  A    between atoms: _324  and  _325
REMARK  137  A    between atoms: _324  and  _327
REMARK  138  A    between atoms: _327  and  _328
REMARK  139  A    between atoms: _328  and  _329
REMARK  140  A    between atoms: _329  and  _331
REMARK  141  A    between atoms: _331  and  MN_368
REMARK  142  A    between atoms: _332  and  _334
REMARK  143  A    between atoms: _334  and  _335
REMARK  144  A    between atoms: _334  and  _337
REMARK  145  A    between atoms: _337  and  _338
REMARK  146  A    between atoms: _340  and  _342
REMARK  147  A    between atoms: _342  and  _343
REMARK  148  A    between atoms: _342  and  _345
REMARK  149  A    between atoms: _345  and  _346
REMARK  150  A    between atoms: _349  and  _351
REMARK  151  A    between atoms: _351  and  _352
REMARK  152  A    between atoms: _351  and  _354
REMARK  153  A    between atoms: _354  and  _355
REMARK  154  A    between atoms: _355  and  _357
REMARK  155  A    between atoms: _357  and  MN_368
REMARK  156  A    between atoms: _358  and  _360
REMARK  157  A    between atoms: _360  and  _361
REMARK  158  A    between atoms: _360  and  _363
REMARK  159  A    between atoms: _363  and  _364
REMARK  160  A    between atoms: _364  and  _365
REMARK                            x       y       z     vdW  Elec       q    Type
REMARK                         _______ _______ _______ _____ _____    ______ ____
ROOT
ATOM      1  O   HOH     1     -27.457 -10.901 -32.410  0.00  0.00    +0.000 OA
ENDROOT
TORSDOF 0
REMARK  Name = ../refined-set-2016/4umc/4umc_pocket.pdb
REMARK  160 active torsions:
REMARK  status: ('A' for Active; 'I' for Inactive)
REMARK    1  A    between atoms: _2  and  _3
REMARK    2  A    between atoms: _8  and  _10
REMARK    3  A    between atoms: _10  and  _11
REMARK    4  A    between atoms: _10  and  _13
REMARK    5  A    between atoms: _13  and  _14
REMARK    6  A    between atoms: _14  and  MN_368
REMARK    7  A    between atoms: _15  and  _17
REMARK    8  A    between atoms: _17  and  _18
REMARK    9  A    between atoms: _17  and  _20
REMARK   10  A    between atoms: _20  and  _21
REMARK   11  A    between atoms: _23  and  _25
REMARK   12  A    between atoms: _25  and  _26
REMARK   13  A    between atoms: _25  and  _28
REMARK   14  A    between atoms: _28  and  _29
REMARK   15  A    between atoms: _29  and  _30
REMARK   16  A    between atoms: _30  and  _31
REMARK   17  A    between atoms: _40  and  _42
REMARK   18  A    between atoms: _42  and  _43
REMARK   19  A    between atoms: _42  and  _45
REMARK   20  A    between atoms: _45  and  _46
REMARK   21  A    between atoms: _51  and  _52
REMARK   22  A    between atoms: _54  and  _56
REMARK   23  A    between atoms: _56  and  _57
REMARK   24  A    between atoms: _56  and  _59
REMARK   25  A    between atoms: _59  and  _60
REMARK   26  A    between atoms: _60  and  _61
REMARK   27  A    between atoms: _64  and  _66
REMARK   28  A    between atoms: _66  and  _67
REMARK   29  A    between atoms: _66  and  _69
REMARK   30  A    between atoms: _69  and  _70
REMARK   31  A    between atoms: _70  and  _71
REMARK   32  A    between atoms: _71  and  _72
REMARK   33  A    between atoms: _72  and  _73
REMARK   34  A    between atoms: _78  and  _79
REMARK   35  A    between atoms: _84  and  _86
REMARK   36  A    between atoms: _86  and  _87
REMARK   37  A    between atoms: _86  and  _89
REMARK   38  A    between atoms: _89  and  _90
REMARK   39  A    between atoms: _90  and  _91
REMARK   40  A    between atoms: _91  and  _92
REMARK   41  A    between atoms: _101  and  _103
REMARK   42  A    between atoms: _103  and  _104
REMARK   43  A    between atoms: _103  and  _106
REMARK   44  A    between atoms: _106  and  _107
REMARK   45  A    between atoms: _110  and  _112
REMARK   46  A    between atoms: _112  and  _113
REMARK   47  A    between atoms: _112  and  _115
REMARK   48  A    between atoms: _115  and  _116
REMARK   49  A    between atoms: _119  and  _121
REMARK   50  A    between atoms: _121  and  _122
REMARK   51  A    between atoms: _121  and  _124
REMARK   52  A    between atoms: _124  and  _125
REMARK   53  A    between atoms: _125  and  _126
REMARK   54  A    between atoms: _129  and  _131
REMARK   55  A    between atoms: _131  and  _132
REMARK   56  A    between atoms: _135  and  _137
REMARK   57  A    between atoms: _137  and  _138
REMARK   58  A    between atoms: _137  and  _140
REMARK   59  A    between atoms: _140  and  _141
REMARK   60  A    between atoms: _144  and  _146
REMARK   61  A    between atoms: _146  and  _147
REMARK   62  A    between atoms: _149  and  _151
REMARK   63  A    between atoms: _151  and  _152
REMARK   64  A    between atoms: _155  and  _157
REMARK   65  A    between atoms: _157  and  _158
REMARK   66  A    between atoms: _157  and  _160
REMARK   67  A    between atoms: _160  and  _161
REMARK   68  A    between atoms: _161  and  _162
REMARK   69  A    between atoms: _162  and  _163
REMARK   70  A    between atoms: _172  and  _174
REMARK   71  A    between atoms: _174  and  _175
REMARK   72  A    between atoms: _174  and  _177
REMARK   73  A    between atoms: _177  and  _178
REMARK   74  A    between atoms: _181  and  _183
REMARK   75  A    between atoms: _183  and  _184
REMARK   76  A    between atoms: _183  and  _186
REMARK   77  A    between atoms: _186  and  _187
REMARK   78  A    between atoms: _190  and  _192
REMARK   79  A    between atoms: _192  and  _193
REMARK   80  A    between atoms: _192  and  _195
REMARK   81  A    between atoms: _195  and  _196
REMARK   82  A    between atoms: _196  and  _197
REMARK   83  A    between atoms: _197  and  _198
REMARK   84  A    between atoms: _198  and  _199
REMARK   85  A    between atoms: _203  and  _205
REMARK   86  A    between atoms: _205  and  _206
REMARK   87  A    between atoms: _205  and  _208
REMARK   88  A    between atoms: _208  and  _209
REMARK   89  A    between atoms: _214  and  _216
REMARK   90  A    between atoms: _216  and  _217
REMARK   91  A    between atoms: _219  and  _221
REMARK   92  A    between atoms: _221  and  _222
REMARK   93  A    between atoms: _221  and  _224
REMARK   94  A    between atoms: _224  and  _225
REMARK   95  A    between atoms: _228  and  _230
REMARK   96  A    between atoms: _230  and  _231
REMARK   97  A    between atoms: _230  and  _233
REMARK   98  A    between atoms: _233  and  _234
REMARK   99  A    between atoms: _237  and  _239
REMARK  100  A    between atoms: _239  and  _240
REMARK  101  A    between atoms: _239  and  _242
REMARK  102  A    between atoms: _242  and  _243
REMARK  103  A    between atoms: _246  and  _248
REMARK  104  A    between atoms: _248  and  _249
REMARK  105  A    between atoms: _248  and  _251
REMARK  106  A    between atoms: _251  and  _252
REMARK  107  A    between atoms: _252  and  _253
REMARK  108  A    between atoms: _253  and  _254
REMARK  109  A    between atoms: _263  and  _265
REMARK  110  A    between atoms: _265  and  _266
REMARK  111  A    between atoms: _268  and  _270
REMARK  112  A    between atoms: _270  and  _271
REMARK  113  A    between atoms: _270  and  _273
REMARK  114  A    between atoms: _273  and  _274
REMARK  115  A    between atoms: _277  and  _279
REMARK  116  A    between atoms: _279  and  _280
REMARK  117  A    between atoms: _279  and  _282
REMARK  118  A    between atoms: _282  and  _283
REMARK  119  A    between atoms: _285  and  _287
REMARK  120  A    between atoms: _287  and  _288
REMARK  121  A    between atoms: _287  and  _290
REMARK  122  A    between atoms: _290  and  _291
REMARK  123  A    between atoms: _295  and  MN_368
REMARK  124  A    between atoms: _296  and  _298
REMARK  125  A    between atoms: _298  and  _299
REMARK  126  A    between atoms: _302  and  _304
REMARK  127  A    between atoms: _304  and  _305
REMARK  128  A    between atoms: _304  and  _307
REMARK  129  A    between atoms: _307  and  _308
REMARK  130  A    between atoms: _313  and  _315
REMARK  131  A    between atoms: _315  and  _316
REMARK  132  A    between atoms: _315  and  _318
REMARK  133  A    between atoms: _318  and  _319
REMARK  134  A    between atoms: _319  and  _320
REMARK  135  A    between atoms: _322  and  _324
REMARK  136  A    between atoms: _324  and  _325
REMARK  137  A    between atoms: _324  and  _327
REMARK  138  A    between atoms: _327  and  _328
REMARK  139  A    between atoms: _328  and  _329
REMARK  140  A    between atoms: _329  and  _331
REMARK  141  A    between atoms: _331  and  MN_368
REMARK  142  A    between atoms: _332  and  _334
REMARK  143  A    between atoms: _334  and  _335
REMARK  144  A    between atoms: _334  and  _337
REMARK  145  A    between atoms: _337  and  _338
REMARK  146  A    between atoms: _340  and  _342
REMARK  147  A    between atoms: _342  and  _343
REMARK  148  A    between atoms: _342  and  _345
REMARK  149  A    between atoms: _345  and  _346
REMARK  150  A    between atoms: _349  and  _351
REMARK  151  A    between atoms: _351  and  _352
REMARK  152  A    between atoms: _351  and  _354
REMARK  153  A    between atoms: _354  and  _355
REMARK  154  A    between atoms: _355  and  _357
REMARK  155  A    between atoms: _357  and  MN_368
REMARK  156  A    between atoms: _358  and  _360
REMARK  157  A    between atoms: _360  and  _361
REMARK  158  A    between atoms: _360  and  _363
REMARK  159  A    between atoms: _363  and  _364
REMARK  160  A    between atoms: _364  and  _365
REMARK                            x       y       z     vdW  Elec       q    Type
REMARK                         _______ _______ _______ _____ _____    ______ ____
ROOT
ATOM      1  O   HOH     1     -26.248 -12.451 -35.956  0.00  0.00    +0.000 OA
ENDROOT
TORSDOF 0
REMARK  Name = ../refined-set-2016/4umc/4umc_pocket.pdb
REMARK  160 active torsions:
REMARK  status: ('A' for Active; 'I' for Inactive)
REMARK    1  A    between atoms: _2  and  _3
REMARK    2  A    between atoms: _8  and  _10
REMARK    3  A    between atoms: _10  and  _11
REMARK    4  A    between atoms: _10  and  _13
REMARK    5  A    between atoms: _13  and  _14
REMARK    6  A    between atoms: _14  and  MN_368
REMARK    7  A    between atoms: _15  and  _17
REMARK    8  A    between atoms: _17  and  _18
REMARK    9  A    between atoms: _17  and  _20
REMARK   10  A    between atoms: _20  and  _21
REMARK   11  A    between atoms: _23  and  _25
REMARK   12  A    between atoms: _25  and  _26
REMARK   13  A    between atoms: _25  and  _28
REMARK   14  A    between atoms: _28  and  _29
REMARK   15  A    between atoms: _29  and  _30
REMARK   16  A    between atoms: _30  and  _31
REMARK   17  A    between atoms: _40  and  _42
REMARK   18  A    between atoms: _42  and  _43
REMARK   19  A    between atoms: _42  and  _45
REMARK   20  A    between atoms: _45  and  _46
REMARK   21  A    between atoms: _51  and  _52
REMARK   22  A    between atoms: _54  and  _56
REMARK   23  A    between atoms: _56  and  _57
REMARK   24  A    between atoms: _56  and  _59
REMARK   25  A    between atoms: _59  and  _60
REMARK   26  A    between atoms: _60  and  _61
REMARK   27  A    between atoms: _64  and  _66
REMARK   28  A    between atoms: _66  and  _67
REMARK   29  A    between atoms: _66  and  _69
REMARK   30  A    between atoms: _69  and  _70
REMARK   31  A    between atoms: _70  and  _71
REMARK   32  A    between atoms: _71  and  _72
REMARK   33  A    between atoms: _72  and  _73
REMARK   34  A    between atoms: _78  and  _79
REMARK   35  A    between atoms: _84  and  _86
REMARK   36  A    between atoms: _86  and  _87
REMARK   37  A    between atoms: _86  and  _89
REMARK   38  A    between atoms: _89  and  _90
REMARK   39  A    between atoms: _90  and  _91
REMARK   40  A    between atoms: _91  and  _92
REMARK   41  A    between atoms: _101  and  _103
REMARK   42  A    between atoms: _103  and  _104
REMARK   43  A    between atoms: _103  and  _106
REMARK   44  A    between atoms: _106  and  _107
REMARK   45  A    between atoms: _110  and  _112
REMARK   46  A    between atoms: _112  and  _113
REMARK   47  A    between atoms: _112  and  _115
REMARK   48  A    between atoms: _115  and  _116
REMARK   49  A    between atoms: _119  and  _121
REMARK   50  A    between atoms: _121  and  _122
REMARK   51  A    between atoms: _121  and  _124
REMARK   52  A    between atoms: _124  and  _125
REMARK   53  A    between atoms: _125  and  _126
REMARK   54  A    between atoms: _129  and  _131
REMARK   55  A    between atoms: _131  and  _132
REMARK   56  A    between atoms: _135  and  _137
REMARK   57  A    between atoms: _137  and  _138
REMARK   58  A    between atoms: _137  and  _140
REMARK   59  A    between atoms: _140  and  _141
REMARK   60  A    between atoms: _144  and  _146
REMARK   61  A    between atoms: _146  and  _147
REMARK   62  A    between atoms: _149  and  _151
REMARK   63  A    between atoms: _151  and  _152
REMARK   64  A    between atoms: _155  and  _157
REMARK   65  A    between atoms: _157  and  _158
REMARK   66  A    between atoms: _157  and  _160
REMARK   67  A    between atoms: _160  and  _161
REMARK   68  A    between atoms: _161  and  _162
REMARK   69  A    between atoms: _162  and  _163
REMARK   70  A    between atoms: _172  and  _174
REMARK   71  A    between atoms: _174  and  _175
REMARK   72  A    between atoms: _174  and  _177
REMARK   73  A    between atoms: _177  and  _178
REMARK   74  A    between atoms: _181  and  _183
REMARK   75  A    between atoms: _183  and  _184
REMARK   76  A    between atoms: _183  and  _186
REMARK   77  A    between atoms: _186  and  _187
REMARK   78  A    between atoms: _190  and  _192
REMARK   79  A    between atoms: _192  and  _193
REMARK   80  A    between atoms: _192  and  _195
REMARK   81  A    between atoms: _195  and  _196
REMARK   82  A    between atoms: _196  and  _197
REMARK   83  A    between atoms: _197  and  _198
REMARK   84  A    between atoms: _198  and  _199
REMARK   85  A    between atoms: _203  and  _205
REMARK   86  A    between atoms: _205  and  _206
REMARK   87  A    between atoms: _205  and  _208
REMARK   88  A    between atoms: _208  and  _209
REMARK   89  A    between atoms: _214  and  _216
REMARK   90  A    between atoms: _216  and  _217
REMARK   91  A    between atoms: _219  and  _221
REMARK   92  A    between atoms: _221  and  _222
REMARK   93  A    between atoms: _221  and  _224
REMARK   94  A    between atoms: _224  and  _225
REMARK   95  A    between atoms: _228  and  _230
REMARK   96  A    between atoms: _230  and  _231
REMARK   97  A    between atoms: _230  and  _233
REMARK   98  A    between atoms: _233  and  _234
REMARK   99  A    between atoms: _237  and  _239
REMARK  100  A    between atoms: _239  and  _240
REMARK  101  A    between atoms: _239  and  _242
REMARK  102  A    between atoms: _242  and  _243
REMARK  103  A    between atoms: _246  and  _248
REMARK  104  A    between atoms: _248  and  _249
REMARK  105  A    between atoms: _248  and  _251
REMARK  106  A    between atoms: _251  and  _252
REMARK  107  A    between atoms: _252  and  _253
REMARK  108  A    between atoms: _253  and  _254
REMARK  109  A    between atoms: _263  and  _265
REMARK  110  A    between atoms: _265  and  _266
REMARK  111  A    between atoms: _268  and  _270
REMARK  112  A    between atoms: _270  and  _271
REMARK  113  A    between atoms: _270  and  _273
REMARK  114  A    between atoms: _273  and  _274
REMARK  115  A    between atoms: _277  and  _279
REMARK  116  A    between atoms: _279  and  _280
REMARK  117  A    between atoms: _279  and  _282
REMARK  118  A    between atoms: _282  and  _283
REMARK  119  A    between atoms: _285  and  _287
REMARK  120  A    between atoms: _287  and  _288
REMARK  121  A    between atoms: _287  and  _290
REMARK  122  A    between atoms: _290  and  _291
REMARK  123  A    between atoms: _295  and  MN_368
REMARK  124  A    between atoms: _296  and  _298
REMARK  125  A    between atoms: _298  and  _299
REMARK  126  A    between atoms: _302  and  _304
REMARK  127  A    between atoms: _304  and  _305
REMARK  128  A    between atoms: _304  and  _307
REMARK  129  A    between atoms: _307  and  _308
REMARK  130  A    between atoms: _313  and  _315
REMARK  131  A    between atoms: _315  and  _316
REMARK  132  A    between atoms: _315  and  _318
REMARK  133  A    between atoms: _318  and  _319
REMARK  134  A    between atoms: _319  and  _320
REMARK  135  A    between atoms: _322  and  _324
REMARK  136  A    between atoms: _324  and  _325
REMARK  137  A    between atoms: _324  and  _327
REMARK  138  A    between atoms: _327  and  _328
REMARK  139  A    between atoms: _328  and  _329
REMARK  140  A    between atoms: _329  and  _331
REMARK  141  A    between atoms: _331  and  MN_368
REMARK  142  A    between atoms: _332  and  _334
REMARK  143  A    between atoms: _334  and  _335
REMARK  144  A    between atoms: _334  and  _337
REMARK  145  A    between atoms: _337  and  _338
REMARK  146  A    between atoms: _340  and  _342
REMARK  147  A    between atoms: _342  and  _343
REMARK  148  A    between atoms: _342  and  _345
REMARK  149  A    between atoms: _345  and  _346
REMARK  150  A    between atoms: _349  and  _351
REMARK  151  A    between atoms: _351  and  _352
REMARK  152  A    between atoms: _351  and  _354
REMARK  153  A    between atoms: _354  and  _355
REMARK  154  A    between atoms: _355  and  _357
REMARK  155  A    between atoms: _357  and  MN_368
REMARK  156  A    between atoms: _358  and  _360
REMARK  157  A    between atoms: _360  and  _361
REMARK  158  A    between atoms: _360  and  _363
REMARK  159  A    between atoms: _363  and  _364
REMARK  160  A    between atoms: _364  and  _365
REMARK                            x       y       z     vdW  Elec       q    Type
REMARK                         _______ _______ _______ _____ _____    ______ ____
ROOT
ATOM      1  O   HOH     1     -25.692 -12.261 -40.517  0.00  0.00    +0.000 OA
ENDROOT
TORSDOF 0
REMARK  Name = ../refined-set-2016/4umc/4umc_pocket.pdb
REMARK  160 active torsions:
REMARK  status: ('A' for Active; 'I' for Inactive)
REMARK    1  A    between atoms: _2  and  _3
REMARK    2  A    between atoms: _8  and  _10
REMARK    3  A    between atoms: _10  and  _11
REMARK    4  A    between atoms: _10  and  _13
REMARK    5  A    between atoms: _13  and  _14
REMARK    6  A    between atoms: _14  and  MN_368
REMARK    7  A    between atoms: _15  and  _17
REMARK    8  A    between atoms: _17  and  _18
REMARK    9  A    between atoms: _17  and  _20
REMARK   10  A    between atoms: _20  and  _21
REMARK   11  A    between atoms: _23  and  _25
REMARK   12  A    between atoms: _25  and  _26
REMARK   13  A    between atoms: _25  and  _28
REMARK   14  A    between atoms: _28  and  _29
REMARK   15  A    between atoms: _29  and  _30
REMARK   16  A    between atoms: _30  and  _31
REMARK   17  A    between atoms: _40  and  _42
REMARK   18  A    between atoms: _42  and  _43
REMARK   19  A    between atoms: _42  and  _45
REMARK   20  A    between atoms: _45  and  _46
REMARK   21  A    between atoms: _51  and  _52
REMARK   22  A    between atoms: _54  and  _56
REMARK   23  A    between atoms: _56  and  _57
REMARK   24  A    between atoms: _56  and  _59
REMARK   25  A    between atoms: _59  and  _60
REMARK   26  A    between atoms: _60  and  _61
REMARK   27  A    between atoms: _64  and  _66
REMARK   28  A    between atoms: _66  and  _67
REMARK   29  A    between atoms: _66  and  _69
REMARK   30  A    between atoms: _69  and  _70
REMARK   31  A    between atoms: _70  and  _71
REMARK   32  A    between atoms: _71  and  _72
REMARK   33  A    between atoms: _72  and  _73
REMARK   34  A    between atoms: _78  and  _79
REMARK   35  A    between atoms: _84  and  _86
REMARK   36  A    between atoms: _86  and  _87
REMARK   37  A    between atoms: _86  and  _89
REMARK   38  A    between atoms: _89  and  _90
REMARK   39  A    between atoms: _90  and  _91
REMARK   40  A    between atoms: _91  and  _92
REMARK   41  A    between atoms: _101  and  _103
REMARK   42  A    between atoms: _103  and  _104
REMARK   43  A    between atoms: _103  and  _106
REMARK   44  A    between atoms: _106  and  _107
REMARK   45  A    between atoms: _110  and  _112
REMARK   46  A    between atoms: _112  and  _113
REMARK   47  A    between atoms: _112  and  _115
REMARK   48  A    between atoms: _115  and  _116
REMARK   49  A    between atoms: _119  and  _121
REMARK   50  A    between atoms: _121  and  _122
REMARK   51  A    between atoms: _121  and  _124
REMARK   52  A    between atoms: _124  and  _125
REMARK   53  A    between atoms: _125  and  _126
REMARK   54  A    between atoms: _129  and  _131
REMARK   55  A    between atoms: _131  and  _132
REMARK   56  A    between atoms: _135  and  _137
REMARK   57  A    between atoms: _137  and  _138
REMARK   58  A    between atoms: _137  and  _140
REMARK   59  A    between atoms: _140  and  _141
REMARK   60  A    between atoms: _144  and  _146
REMARK   61  A    between atoms: _146  and  _147
REMARK   62  A    between atoms: _149  and  _151
REMARK   63  A    between atoms: _151  and  _152
REMARK   64  A    between atoms: _155  and  _157
REMARK   65  A    between atoms: _157  and  _158
REMARK   66  A    between atoms: _157  and  _160
REMARK   67  A    between atoms: _160  and  _161
REMARK   68  A    between atoms: _161  and  _162
REMARK   69  A    between atoms: _162  and  _163
REMARK   70  A    between atoms: _172  and  _174
REMARK   71  A    between atoms: _174  and  _175
REMARK   72  A    between atoms: _174  and  _177
REMARK   73  A    between atoms: _177  and  _178
REMARK   74  A    between atoms: _181  and  _183
REMARK   75  A    between atoms: _183  and  _184
REMARK   76  A    between atoms: _183  and  _186
REMARK   77  A    between atoms: _186  and  _187
REMARK   78  A    between atoms: _190  and  _192
REMARK   79  A    between atoms: _192  and  _193
REMARK   80  A    between atoms: _192  and  _195
REMARK   81  A    between atoms: _195  and  _196
REMARK   82  A    between atoms: _196  and  _197
REMARK   83  A    between atoms: _197  and  _198
REMARK   84  A    between atoms: _198  and  _199
REMARK   85  A    between atoms: _203  and  _205
REMARK   86  A    between atoms: _205  and  _206
REMARK   87  A    between atoms: _205  and  _208
REMARK   88  A    between atoms: _208  and  _209
REMARK   89  A    between atoms: _214  and  _216
REMARK   90  A    between atoms: _216  and  _217
REMARK   91  A    between atoms: _219  and  _221
REMARK   92  A    between atoms: _221  and  _222
REMARK   93  A    between atoms: _221  and  _224
REMARK   94  A    between atoms: _224  and  _225
REMARK   95  A    between atoms: _228  and  _230
REMARK   96  A    between atoms: _230  and  _231
REMARK   97  A    between atoms: _230  and  _233
REMARK   98  A    between atoms: _233  and  _234
REMARK   99  A    between atoms: _237  and  _239
REMARK  100  A    between atoms: _239  and  _240
REMARK  101  A    between atoms: _239  and  _242
REMARK  102  A    between atoms: _242  and  _243
REMARK  103  A    between atoms: _246  and  _248
REMARK  104  A    between atoms: _248  and  _249
REMARK  105  A    between atoms: _248  and  _251
REMARK  106  A    between atoms: _251  and  _252
REMARK  107  A    between atoms: _252  and  _253
REMARK  108  A    between atoms: _253  and  _254
REMARK  109  A    between atoms: _263  and  _265
REMARK  110  A    between atoms: _265  and  _266
REMARK  111  A    between atoms: _268  and  _270
REMARK  112  A    between atoms: _270  and  _271
REMARK  113  A    between atoms: _270  and  _273
REMARK  114  A    between atoms: _273  and  _274
REMARK  115  A    between atoms: _277  and  _279
REMARK  116  A    between atoms: _279  and  _280
REMARK  117  A    between atoms: _279  and  _282
REMARK  118  A    between atoms: _282  and  _283
REMARK  119  A    between atoms: _285  and  _287
REMARK  120  A    between atoms: _287  and  _288
REMARK  121  A    between atoms: _287  and  _290
REMARK  122  A    between atoms: _290  and  _291
REMARK  123  A    between atoms: _295  and  MN_368
REMARK  124  A    between atoms: _296  and  _298
REMARK  125  A    between atoms: _298  and  _299
REMARK  126  A    between atoms: _302  and  _304
REMARK  127  A    between atoms: _304  and  _305
REMARK  128  A    between atoms: _304  and  _307
REMARK  129  A    between atoms: _307  and  _308
REMARK  130  A    between atoms: _313  and  _315
REMARK  131  A    between atoms: _315  and  _316
REMARK  132  A    between atoms: _315  and  _318
REMARK  133  A    between atoms: _318  and  _319
REMARK  134  A    between atoms: _319  and  _320
REMARK  135  A    between atoms: _322  and  _324
REMARK  136  A    between atoms: _324  and  _325
REMARK  137  A    between atoms: _324  and  _327
REMARK  138  A    between atoms: _327  and  _328
REMARK  139  A    between atoms: _328  and  _329
REMARK  140  A    between atoms: _329  and  _331
REMARK  141  A    between atoms: _331  and  MN_368
REMARK  142  A    between atoms: _332  and  _334
REMARK  143  A    between atoms: _334  and  _335
REMARK  144  A    between atoms: _334  and  _337
REMARK  145  A    between atoms: _337  and  _338
REMARK  146  A    between atoms: _340  and  _342
REMARK  147  A    between atoms: _342  and  _343
REMARK  148  A    between atoms: _342  and  _345
REMARK  149  A    between atoms: _345  and  _346
REMARK  150  A    between atoms: _349  and  _351
REMARK  151  A    between atoms: _351  and  _352
REMARK  152  A    between atoms: _351  and  _354
REMARK  153  A    between atoms: _354  and  _355
REMARK  154  A    between atoms: _355  and  _357
REMARK  155  A    between atoms: _357  and  MN_368
REMARK  156  A    between atoms: _358  and  _360
REMARK  157  A    between atoms: _360  and  _361
REMARK  158  A    between atoms: _360  and  _363
REMARK  159  A    between atoms: _363  and  _364
REMARK  160  A    between atoms: _364  and  _365
REMARK                            x       y       z     vdW  Elec       q    Type
REMARK                         _______ _______ _______ _____ _____    ______ ____
ROOT
ATOM      1  O   HOH     1     -24.087 -16.618 -34.949  0.00  0.00    +0.000 OA
ENDROOT
TORSDOF 0
REMARK  Name = ../refined-set-2016/4umc/4umc_pocket.pdb
REMARK  160 active torsions:
REMARK  status: ('A' for Active; 'I' for Inactive)
REMARK    1  A    between atoms: _2  and  _3
REMARK    2  A    between atoms: _8  and  _10
REMARK    3  A    between atoms: _10  and  _11
REMARK    4  A    between atoms: _10  and  _13
REMARK    5  A    between atoms: _13  and  _14
REMARK    6  A    between atoms: _14  and  MN_368
REMARK    7  A    between atoms: _15  and  _17
REMARK    8  A    between atoms: _17  and  _18
REMARK    9  A    between atoms: _17  and  _20
REMARK   10  A    between atoms: _20  and  _21
REMARK   11  A    between atoms: _23  and  _25
REMARK   12  A    between atoms: _25  and  _26
REMARK   13  A    between atoms: _25  and  _28
REMARK   14  A    between atoms: _28  and  _29
REMARK   15  A    between atoms: _29  and  _30
REMARK   16  A    between atoms: _30  and  _31
REMARK   17  A    between atoms: _40  and  _42
REMARK   18  A    between atoms: _42  and  _43
REMARK   19  A    between atoms: _42  and  _45
REMARK   20  A    between atoms: _45  and  _46
REMARK   21  A    between atoms: _51  and  _52
REMARK   22  A    between atoms: _54  and  _56
REMARK   23  A    between atoms: _56  and  _57
REMARK   24  A    between atoms: _56  and  _59
REMARK   25  A    between atoms: _59  and  _60
REMARK   26  A    between atoms: _60  and  _61
REMARK   27  A    between atoms: _64  and  _66
REMARK   28  A    between atoms: _66  and  _67
REMARK   29  A    between atoms: _66  and  _69
REMARK   30  A    between atoms: _69  and  _70
REMARK   31  A    between atoms: _70  and  _71
REMARK   32  A    between atoms: _71  and  _72
REMARK   33  A    between atoms: _72  and  _73
REMARK   34  A    between atoms: _78  and  _79
REMARK   35  A    between atoms: _84  and  _86
REMARK   36  A    between atoms: _86  and  _87
REMARK   37  A    between atoms: _86  and  _89
REMARK   38  A    between atoms: _89  and  _90
REMARK   39  A    between atoms: _90  and  _91
REMARK   40  A    between atoms: _91  and  _92
REMARK   41  A    between atoms: _101  and  _103
REMARK   42  A    between atoms: _103  and  _104
REMARK   43  A    between atoms: _103  and  _106
REMARK   44  A    between atoms: _106  and  _107
REMARK   45  A    between atoms: _110  and  _112
REMARK   46  A    between atoms: _112  and  _113
REMARK   47  A    between atoms: _112  and  _115
REMARK   48  A    between atoms: _115  and  _116
REMARK   49  A    between atoms: _119  and  _121
REMARK   50  A    between atoms: _121  and  _122
REMARK   51  A    between atoms: _121  and  _124
REMARK   52  A    between atoms: _124  and  _125
REMARK   53  A    between atoms: _125  and  _126
REMARK   54  A    between atoms: _129  and  _131
REMARK   55  A    between atoms: _131  and  _132
REMARK   56  A    between atoms: _135  and  _137
REMARK   57  A    between atoms: _137  and  _138
REMARK   58  A    between atoms: _137  and  _140
REMARK   59  A    between atoms: _140  and  _141
REMARK   60  A    between atoms: _144  and  _146
REMARK   61  A    between atoms: _146  and  _147
REMARK   62  A    between atoms: _149  and  _151
REMARK   63  A    between atoms: _151  and  _152
REMARK   64  A    between atoms: _155  and  _157
REMARK   65  A    between atoms: _157  and  _158
REMARK   66  A    between atoms: _157  and  _160
REMARK   67  A    between atoms: _160  and  _161
REMARK   68  A    between atoms: _161  and  _162
REMARK   69  A    between atoms: _162  and  _163
REMARK   70  A    between atoms: _172  and  _174
REMARK   71  A    between atoms: _174  and  _175
REMARK   72  A    between atoms: _174  and  _177
REMARK   73  A    between atoms: _177  and  _178
REMARK   74  A    between atoms: _181  and  _183
REMARK   75  A    between atoms: _183  and  _184
REMARK   76  A    between atoms: _183  and  _186
REMARK   77  A    between atoms: _186  and  _187
REMARK   78  A    between atoms: _190  and  _192
REMARK   79  A    between atoms: _192  and  _193
REMARK   80  A    between atoms: _192  and  _195
REMARK   81  A    between atoms: _195  and  _196
REMARK   82  A    between atoms: _196  and  _197
REMARK   83  A    between atoms: _197  and  _198
REMARK   84  A    between atoms: _198  and  _199
REMARK   85  A    between atoms: _203  and  _205
REMARK   86  A    between atoms: _205  and  _206
REMARK   87  A    between atoms: _205  and  _208
REMARK   88  A    between atoms: _208  and  _209
REMARK   89  A    between atoms: _214  and  _216
REMARK   90  A    between atoms: _216  and  _217
REMARK   91  A    between atoms: _219  and  _221
REMARK   92  A    between atoms: _221  and  _222
REMARK   93  A    between atoms: _221  and  _224
REMARK   94  A    between atoms: _224  and  _225
REMARK   95  A    between atoms: _228  and  _230
REMARK   96  A    between atoms: _230  and  _231
REMARK   97  A    between atoms: _230  and  _233
REMARK   98  A    between atoms: _233  and  _234
REMARK   99  A    between atoms: _237  and  _239
REMARK  100  A    between atoms: _239  and  _240
REMARK  101  A    between atoms: _239  and  _242
REMARK  102  A    between atoms: _242  and  _243
REMARK  103  A    between atoms: _246  and  _248
REMARK  104  A    between atoms: _248  and  _249
REMARK  105  A    between atoms: _248  and  _251
REMARK  106  A    between atoms: _251  and  _252
REMARK  107  A    between atoms: _252  and  _253
REMARK  108  A    between atoms: _253  and  _254
REMARK  109  A    between atoms: _263  and  _265
REMARK  110  A    between atoms: _265  and  _266
REMARK  111  A    between atoms: _268  and  _270
REMARK  112  A    between atoms: _270  and  _271
REMARK  113  A    between atoms: _270  and  _273
REMARK  114  A    between atoms: _273  and  _274
REMARK  115  A    between atoms: _277  and  _279
REMARK  116  A    between atoms: _279  and  _280
REMARK  117  A    between atoms: _279  and  _282
REMARK  118  A    between atoms: _282  and  _283
REMARK  119  A    between atoms: _285  and  _287
REMARK  120  A    between atoms: _287  and  _288
REMARK  121  A    between atoms: _287  and  _290
REMARK  122  A    between atoms: _290  and  _291
REMARK  123  A    between atoms: _295  and  MN_368
REMARK  124  A    between atoms: _296  and  _298
REMARK  125  A    between atoms: _298  and  _299
REMARK  126  A    between atoms: _302  and  _304
REMARK  127  A    between atoms: _304  and  _305
REMARK  128  A    between atoms: _304  and  _307
REMARK  129  A    between atoms: _307  and  _308
REMARK  130  A    between atoms: _313  and  _315
REMARK  131  A    between atoms: _315  and  _316
REMARK  132  A    between atoms: _315  and  _318
REMARK  133  A    between atoms: _318  and  _319
REMARK  134  A    between atoms: _319  and  _320
REMARK  135  A    between atoms: _322  and  _324
REMARK  136  A    between atoms: _324  and  _325
REMARK  137  A    between atoms: _324  and  _327
REMARK  138  A    between atoms: _327  and  _328
REMARK  139  A    between atoms: _328  and  _329
REMARK  140  A    between atoms: _329  and  _331
REMARK  141  A    between atoms: _331  and  MN_368
REMARK  142  A    between atoms: _332  and  _334
REMARK  143  A    between atoms: _334  and  _335
REMARK  144  A    between atoms: _334  and  _337
REMARK  145  A    between atoms: _337  and  _338
REMARK  146  A    between atoms: _340  and  _342
REMARK  147  A    between atoms: _342  and  _343
REMARK  148  A    between atoms: _342  and  _345
REMARK  149  A    between atoms: _345  and  _346
REMARK  150  A    between atoms: _349  and  _351
REMARK  151  A    between atoms: _351  and  _352
REMARK  152  A    between atoms: _351  and  _354
REMARK  153  A    between atoms: _354  and  _355
REMARK  154  A    between atoms: _355  and  _357
REMARK  155  A    between atoms: _357  and  MN_368
REMARK  156  A    between atoms: _358  and  _360
REMARK  157  A    between atoms: _360  and  _361
REMARK  158  A    between atoms: _360  and  _363
REMARK  159  A    between atoms: _363  and  _364
REMARK  160  A    between atoms: _364  and  _365
REMARK                            x       y       z     vdW  Elec       q    Type
REMARK                         _______ _______ _______ _____ _____    ______ ____
ROOT
ATOM      1  O   HOH     1     -20.047 -13.189 -36.104  0.00  0.00    +0.000 OA
ENDROOT
TORSDOF 0
REMARK  Name = ../refined-set-2016/4umc/4umc_pocket.pdb
REMARK  160 active torsions:
REMARK  status: ('A' for Active; 'I' for Inactive)
REMARK    1  A    between atoms: _2  and  _3
REMARK    2  A    between atoms: _8  and  _10
REMARK    3  A    between atoms: _10  and  _11
REMARK    4  A    between atoms: _10  and  _13
REMARK    5  A    between atoms: _13  and  _14
REMARK    6  A    between atoms: _14  and  MN_368
REMARK    7  A    between atoms: _15  and  _17
REMARK    8  A    between atoms: _17  and  _18
REMARK    9  A    between atoms: _17  and  _20
REMARK   10  A    between atoms: _20  and  _21
REMARK   11  A    between atoms: _23  and  _25
REMARK   12  A    between atoms: _25  and  _26
REMARK   13  A    between atoms: _25  and  _28
REMARK   14  A    between atoms: _28  and  _29
REMARK   15  A    between atoms: _29  and  _30
REMARK   16  A    between atoms: _30  and  _31
REMARK   17  A    between atoms: _40  and  _42
REMARK   18  A    between atoms: _42  and  _43
REMARK   19  A    between atoms: _42  and  _45
REMARK   20  A    between atoms: _45  and  _46
REMARK   21  A    between atoms: _51  and  _52
REMARK   22  A    between atoms: _54  and  _56
REMARK   23  A    between atoms: _56  and  _57
REMARK   24  A    between atoms: _56  and  _59
REMARK   25  A    between atoms: _59  and  _60
REMARK   26  A    between atoms: _60  and  _61
REMARK   27  A    between atoms: _64  and  _66
REMARK   28  A    between atoms: _66  and  _67
REMARK   29  A    between atoms: _66  and  _69
REMARK   30  A    between atoms: _69  and  _70
REMARK   31  A    between atoms: _70  and  _71
REMARK   32  A    between atoms: _71  and  _72
REMARK   33  A    between atoms: _72  and  _73
REMARK   34  A    between atoms: _78  and  _79
REMARK   35  A    between atoms: _84  and  _86
REMARK   36  A    between atoms: _86  and  _87
REMARK   37  A    between atoms: _86  and  _89
REMARK   38  A    between atoms: _89  and  _90
REMARK   39  A    between atoms: _90  and  _91
REMARK   40  A    between atoms: _91  and  _92
REMARK   41  A    between atoms: _101  and  _103
REMARK   42  A    between atoms: _103  and  _104
REMARK   43  A    between atoms: _103  and  _106
REMARK   44  A    between atoms: _106  and  _107
REMARK   45  A    between atoms: _110  and  _112
REMARK   46  A    between atoms: _112  and  _113
REMARK   47  A    between atoms: _112  and  _115
REMARK   48  A    between atoms: _115  and  _116
REMARK   49  A    between atoms: _119  and  _121
REMARK   50  A    between atoms: _121  and  _122
REMARK   51  A    between atoms: _121  and  _124
REMARK   52  A    between atoms: _124  and  _125
REMARK   53  A    between atoms: _125  and  _126
REMARK   54  A    between atoms: _129  and  _131
REMARK   55  A    between atoms: _131  and  _132
REMARK   56  A    between atoms: _135  and  _137
REMARK   57  A    between atoms: _137  and  _138
REMARK   58  A    between atoms: _137  and  _140
REMARK   59  A    between atoms: _140  and  _141
REMARK   60  A    between atoms: _144  and  _146
REMARK   61  A    between atoms: _146  and  _147
REMARK   62  A    between atoms: _149  and  _151
REMARK   63  A    between atoms: _151  and  _152
REMARK   64  A    between atoms: _155  and  _157
REMARK   65  A    between atoms: _157  and  _158
REMARK   66  A    between atoms: _157  and  _160
REMARK   67  A    between atoms: _160  and  _161
REMARK   68  A    between atoms: _161  and  _162
REMARK   69  A    between atoms: _162  and  _163
REMARK   70  A    between atoms: _172  and  _174
REMARK   71  A    between atoms: _174  and  _175
REMARK   72  A    between atoms: _174  and  _177
REMARK   73  A    between atoms: _177  and  _178
REMARK   74  A    between atoms: _181  and  _183
REMARK   75  A    between atoms: _183  and  _184
REMARK   76  A    between atoms: _183  and  _186
REMARK   77  A    between atoms: _186  and  _187
REMARK   78  A    between atoms: _190  and  _192
REMARK   79  A    between atoms: _192  and  _193
REMARK   80  A    between atoms: _192  and  _195
REMARK   81  A    between atoms: _195  and  _196
REMARK   82  A    between atoms: _196  and  _197
REMARK   83  A    between atoms: _197  and  _198
REMARK   84  A    between atoms: _198  and  _199
REMARK   85  A    between atoms: _203  and  _205
REMARK   86  A    between atoms: _205  and  _206
REMARK   87  A    between atoms: _205  and  _208
REMARK   88  A    between atoms: _208  and  _209
REMARK   89  A    between atoms: _214  and  _216
REMARK   90  A    between atoms: _216  and  _217
REMARK   91  A    between atoms: _219  and  _221
REMARK   92  A    between atoms: _221  and  _222
REMARK   93  A    between atoms: _221  and  _224
REMARK   94  A    between atoms: _224  and  _225
REMARK   95  A    between atoms: _228  and  _230
REMARK   96  A    between atoms: _230  and  _231
REMARK   97  A    between atoms: _230  and  _233
REMARK   98  A    between atoms: _233  and  _234
REMARK   99  A    between atoms: _237  and  _239
REMARK  100  A    between atoms: _239  and  _240
REMARK  101  A    between atoms: _239  and  _242
REMARK  102  A    between atoms: _242  and  _243
REMARK  103  A    between atoms: _246  and  _248
REMARK  104  A    between atoms: _248  and  _249
REMARK  105  A    between atoms: _248  and  _251
REMARK  106  A    between atoms: _251  and  _252
REMARK  107  A    between atoms: _252  and  _253
REMARK  108  A    between atoms: _253  and  _254
REMARK  109  A    between atoms: _263  and  _265
REMARK  110  A    between atoms: _265  and  _266
REMARK  111  A    between atoms: _268  and  _270
REMARK  112  A    between atoms: _270  and  _271
REMARK  113  A    between atoms: _270  and  _273
REMARK  114  A    between atoms: _273  and  _274
REMARK  115  A    between atoms: _277  and  _279
REMARK  116  A    between atoms: _279  and  _280
REMARK  117  A    between atoms: _279  and  _282
REMARK  118  A    between atoms: _282  and  _283
REMARK  119  A    between atoms: _285  and  _287
REMARK  120  A    between atoms: _287  and  _288
REMARK  121  A    between atoms: _287  and  _290
REMARK  122  A    between atoms: _290  and  _291
REMARK  123  A    between atoms: _295  and  MN_368
REMARK  124  A    between atoms: _296  and  _298
REMARK  125  A    between atoms: _298  and  _299
REMARK  126  A    between atoms: _302  and  _304
REMARK  127  A    between atoms: _304  and  _305
REMARK  128  A    between atoms: _304  and  _307
REMARK  129  A    between atoms: _307  and  _308
REMARK  130  A    between atoms: _313  and  _315
REMARK  131  A    between atoms: _315  and  _316
REMARK  132  A    between atoms: _315  and  _318
REMARK  133  A    between atoms: _318  and  _319
REMARK  134  A    between atoms: _319  and  _320
REMARK  135  A    between atoms: _322  and  _324
REMARK  136  A    between atoms: _324  and  _325
REMARK  137  A    between atoms: _324  and  _327
REMARK  138  A    between atoms: _327  and  _328
REMARK  139  A    between atoms: _328  and  _329
REMARK  140  A    between atoms: _329  and  _331
REMARK  141  A    between atoms: _331  and  MN_368
REMARK  142  A    between atoms: _332  and  _334
REMARK  143  A    between atoms: _334  and  _335
REMARK  144  A    between atoms: _334  and  _337
REMARK  145  A    between atoms: _337  and  _338
REMARK  146  A    between atoms: _340  and  _342
REMARK  147  A    between atoms: _342  and  _343
REMARK  148  A    between atoms: _342  and  _345
REMARK  149  A    between atoms: _345  and  _346
REMARK  150  A    between atoms: _349  and  _351
REMARK  151  A    between atoms: _351  and  _352
REMARK  152  A    between atoms: _351  and  _354
REMARK  153  A    between atoms: _354  and  _355
REMARK  154  A    between atoms: _355  and  _357
REMARK  155  A    between atoms: _357  and  MN_368
REMARK  156  A    between atoms: _358  and  _360
REMARK  157  A    between atoms: _360  and  _361
REMARK  158  A    between atoms: _360  and  _363
REMARK  159  A    between atoms: _363  and  _364
REMARK  160  A    between atoms: _364  and  _365
REMARK                            x       y       z     vdW  Elec       q    Type
REMARK                         _______ _______ _______ _____ _____    ______ ____
ROOT
ATOM      1  O   HOH     1     -20.821 -15.247 -37.826  0.00  0.00    +0.000 OA
ENDROOT
TORSDOF 0
REMARK  Name = ../refined-set-2016/4umc/4umc_pocket.pdb
REMARK  160 active torsions:
REMARK  status: ('A' for Active; 'I' for Inactive)
REMARK    1  A    between atoms: _2  and  _3
REMARK    2  A    between atoms: _8  and  _10
REMARK    3  A    between atoms: _10  and  _11
REMARK    4  A    between atoms: _10  and  _13
REMARK    5  A    between atoms: _13  and  _14
REMARK    6  A    between atoms: _14  and  MN_368
REMARK    7  A    between atoms: _15  and  _17
REMARK    8  A    between atoms: _17  and  _18
REMARK    9  A    between atoms: _17  and  _20
REMARK   10  A    between atoms: _20  and  _21
REMARK   11  A    between atoms: _23  and  _25
REMARK   12  A    between atoms: _25  and  _26
REMARK   13  A    between atoms: _25  and  _28
REMARK   14  A    between atoms: _28  and  _29
REMARK   15  A    between atoms: _29  and  _30
REMARK   16  A    between atoms: _30  and  _31
REMARK   17  A    between atoms: _40  and  _42
REMARK   18  A    between atoms: _42  and  _43
REMARK   19  A    between atoms: _42  and  _45
REMARK   20  A    between atoms: _45  and  _46
REMARK   21  A    between atoms: _51  and  _52
REMARK   22  A    between atoms: _54  and  _56
REMARK   23  A    between atoms: _56  and  _57
REMARK   24  A    between atoms: _56  and  _59
REMARK   25  A    between atoms: _59  and  _60
REMARK   26  A    between atoms: _60  and  _61
REMARK   27  A    between atoms: _64  and  _66
REMARK   28  A    between atoms: _66  and  _67
REMARK   29  A    between atoms: _66  and  _69
REMARK   30  A    between atoms: _69  and  _70
REMARK   31  A    between atoms: _70  and  _71
REMARK   32  A    between atoms: _71  and  _72
REMARK   33  A    between atoms: _72  and  _73
REMARK   34  A    between atoms: _78  and  _79
REMARK   35  A    between atoms: _84  and  _86
REMARK   36  A    between atoms: _86  and  _87
REMARK   37  A    between atoms: _86  and  _89
REMARK   38  A    between atoms: _89  and  _90
REMARK   39  A    between atoms: _90  and  _91
REMARK   40  A    between atoms: _91  and  _92
REMARK   41  A    between atoms: _101  and  _103
REMARK   42  A    between atoms: _103  and  _104
REMARK   43  A    between atoms: _103  and  _106
REMARK   44  A    between atoms: _106  and  _107
REMARK   45  A    between atoms: _110  and  _112
REMARK   46  A    between atoms: _112  and  _113
REMARK   47  A    between atoms: _112  and  _115
REMARK   48  A    between atoms: _115  and  _116
REMARK   49  A    between atoms: _119  and  _121
REMARK   50  A    between atoms: _121  and  _122
REMARK   51  A    between atoms: _121  and  _124
REMARK   52  A    between atoms: _124  and  _125
REMARK   53  A    between atoms: _125  and  _126
REMARK   54  A    between atoms: _129  and  _131
REMARK   55  A    between atoms: _131  and  _132
REMARK   56  A    between atoms: _135  and  _137
REMARK   57  A    between atoms: _137  and  _138
REMARK   58  A    between atoms: _137  and  _140
REMARK   59  A    between atoms: _140  and  _141
REMARK   60  A    between atoms: _144  and  _146
REMARK   61  A    between atoms: _146  and  _147
REMARK   62  A    between atoms: _149  and  _151
REMARK   63  A    between atoms: _151  and  _152
REMARK   64  A    between atoms: _155  and  _157
REMARK   65  A    between atoms: _157  and  _158
REMARK   66  A    between atoms: _157  and  _160
REMARK   67  A    between atoms: _160  and  _161
REMARK   68  A    between atoms: _161  and  _162
REMARK   69  A    between atoms: _162  and  _163
REMARK   70  A    between atoms: _172  and  _174
REMARK   71  A    between atoms: _174  and  _175
REMARK   72  A    between atoms: _174  and  _177
REMARK   73  A    between atoms: _177  and  _178
REMARK   74  A    between atoms: _181  and  _183
REMARK   75  A    between atoms: _183  and  _184
REMARK   76  A    between atoms: _183  and  _186
REMARK   77  A    between atoms: _186  and  _187
REMARK   78  A    between atoms: _190  and  _192
REMARK   79  A    between atoms: _192  and  _193
REMARK   80  A    between atoms: _192  and  _195
REMARK   81  A    between atoms: _195  and  _196
REMARK   82  A    between atoms: _196  and  _197
REMARK   83  A    between atoms: _197  and  _198
REMARK   84  A    between atoms: _198  and  _199
REMARK   85  A    between atoms: _203  and  _205
REMARK   86  A    between atoms: _205  and  _206
REMARK   87  A    between atoms: _205  and  _208
REMARK   88  A    between atoms: _208  and  _209
REMARK   89  A    between atoms: _214  and  _216
REMARK   90  A    between atoms: _216  and  _217
REMARK   91  A    between atoms: _219  and  _221
REMARK   92  A    between atoms: _221  and  _222
REMARK   93  A    between atoms: _221  and  _224
REMARK   94  A    between atoms: _224  and  _225
REMARK   95  A    between atoms: _228  and  _230
REMARK   96  A    between atoms: _230  and  _231
REMARK   97  A    between atoms: _230  and  _233
REMARK   98  A    between atoms: _233  and  _234
REMARK   99  A    between atoms: _237  and  _239
REMARK  100  A    between atoms: _239  and  _240
REMARK  101  A    between atoms: _239  and  _242
REMARK  102  A    between atoms: _242  and  _243
REMARK  103  A    between atoms: _246  and  _248
REMARK  104  A    between atoms: _248  and  _249
REMARK  105  A    between atoms: _248  and  _251
REMARK  106  A    between atoms: _251  and  _252
REMARK  107  A    between atoms: _252  and  _253
REMARK  108  A    between atoms: _253  and  _254
REMARK  109  A    between atoms: _263  and  _265
REMARK  110  A    between atoms: _265  and  _266
REMARK  111  A    between atoms: _268  and  _270
REMARK  112  A    between atoms: _270  and  _271
REMARK  113  A    between atoms: _270  and  _273
REMARK  114  A    between atoms: _273  and  _274
REMARK  115  A    between atoms: _277  and  _279
REMARK  116  A    between atoms: _279  and  _280
REMARK  117  A    between atoms: _279  and  _282
REMARK  118  A    between atoms: _282  and  _283
REMARK  119  A    between atoms: _285  and  _287
REMARK  120  A    between atoms: _287  and  _288
REMARK  121  A    between atoms: _287  and  _290
REMARK  122  A    between atoms: _290  and  _291
REMARK  123  A    between atoms: _295  and  MN_368
REMARK  124  A    between atoms: _296  and  _298
REMARK  125  A    between atoms: _298  and  _299
REMARK  126  A    between atoms: _302  and  _304
REMARK  127  A    between atoms: _304  and  _305
REMARK  128  A    between atoms: _304  and  _307
REMARK  129  A    between atoms: _307  and  _308
REMARK  130  A    between atoms: _313  and  _315
REMARK  131  A    between atoms: _315  and  _316
REMARK  132  A    between atoms: _315  and  _318
REMARK  133  A    between atoms: _318  and  _319
REMARK  134  A    between atoms: _319  and  _320
REMARK  135  A    between atoms: _322  and  _324
REMARK  136  A    between atoms: _324  and  _325
REMARK  137  A    between atoms: _324  and  _327
REMARK  138  A    between atoms: _327  and  _328
REMARK  139  A    between atoms: _328  and  _329
REMARK  140  A    between atoms: _329  and  _331
REMARK  141  A    between atoms: _331  and  MN_368
REMARK  142  A    between atoms: _332  and  _334
REMARK  143  A    between atoms: _334  and  _335
REMARK  144  A    between atoms: _334  and  _337
REMARK  145  A    between atoms: _337  and  _338
REMARK  146  A    between atoms: _340  and  _342
REMARK  147  A    between atoms: _342  and  _343
REMARK  148  A    between atoms: _342  and  _345
REMARK  149  A    between atoms: _345  and  _346
REMARK  150  A    between atoms: _349  and  _351
REMARK  151  A    between atoms: _351  and  _352
REMARK  152  A    between atoms: _351  and  _354
REMARK  153  A    between atoms: _354  and  _355
REMARK  154  A    between atoms: _355  and  _357
REMARK  155  A    between atoms: _357  and  MN_368
REMARK  156  A    between atoms: _358  and  _360
REMARK  157  A    between atoms: _360  and  _361
REMARK  158  A    between atoms: _360  and  _363
REMARK  159  A    between atoms: _363  and  _364
REMARK  160  A    between atoms: _364  and  _365
REMARK                            x       y       z     vdW  Elec       q    Type
REMARK                         _______ _______ _______ _____ _____    ______ ____
ROOT
ATOM      1  O   HOH     1     -15.290 -18.445 -39.733  0.00  0.00    +0.000 OA
ENDROOT
TORSDOF 0
REMARK  Name = ../refined-set-2016/4umc/4umc_pocket.pdb
REMARK  160 active torsions:
REMARK  status: ('A' for Active; 'I' for Inactive)
REMARK    1  A    between atoms: _2  and  _3
REMARK    2  A    between atoms: _8  and  _10
REMARK    3  A    between atoms: _10  and  _11
REMARK    4  A    between atoms: _10  and  _13
REMARK    5  A    between atoms: _13  and  _14
REMARK    6  A    between atoms: _14  and  MN_368
REMARK    7  A    between atoms: _15  and  _17
REMARK    8  A    between atoms: _17  and  _18
REMARK    9  A    between atoms: _17  and  _20
REMARK   10  A    between atoms: _20  and  _21
REMARK   11  A    between atoms: _23  and  _25
REMARK   12  A    between atoms: _25  and  _26
REMARK   13  A    between atoms: _25  and  _28
REMARK   14  A    between atoms: _28  and  _29
REMARK   15  A    between atoms: _29  and  _30
REMARK   16  A    between atoms: _30  and  _31
REMARK   17  A    between atoms: _40  and  _42
REMARK   18  A    between atoms: _42  and  _43
REMARK   19  A    between atoms: _42  and  _45
REMARK   20  A    between atoms: _45  and  _46
REMARK   21  A    between atoms: _51  and  _52
REMARK   22  A    between atoms: _54  and  _56
REMARK   23  A    between atoms: _56  and  _57
REMARK   24  A    between atoms: _56  and  _59
REMARK   25  A    between atoms: _59  and  _60
REMARK   26  A    between atoms: _60  and  _61
REMARK   27  A    between atoms: _64  and  _66
REMARK   28  A    between atoms: _66  and  _67
REMARK   29  A    between atoms: _66  and  _69
REMARK   30  A    between atoms: _69  and  _70
REMARK   31  A    between atoms: _70  and  _71
REMARK   32  A    between atoms: _71  and  _72
REMARK   33  A    between atoms: _72  and  _73
REMARK   34  A    between atoms: _78  and  _79
REMARK   35  A    between atoms: _84  and  _86
REMARK   36  A    between atoms: _86  and  _87
REMARK   37  A    between atoms: _86  and  _89
REMARK   38  A    between atoms: _89  and  _90
REMARK   39  A    between atoms: _90  and  _91
REMARK   40  A    between atoms: _91  and  _92
REMARK   41  A    between atoms: _101  and  _103
REMARK   42  A    between atoms: _103  and  _104
REMARK   43  A    between atoms: _103  and  _106
REMARK   44  A    between atoms: _106  and  _107
REMARK   45  A    between atoms: _110  and  _112
REMARK   46  A    between atoms: _112  and  _113
REMARK   47  A    between atoms: _112  and  _115
REMARK   48  A    between atoms: _115  and  _116
REMARK   49  A    between atoms: _119  and  _121
REMARK   50  A    between atoms: _121  and  _122
REMARK   51  A    between atoms: _121  and  _124
REMARK   52  A    between atoms: _124  and  _125
REMARK   53  A    between atoms: _125  and  _126
REMARK   54  A    between atoms: _129  and  _131
REMARK   55  A    between atoms: _131  and  _132
REMARK   56  A    between atoms: _135  and  _137
REMARK   57  A    between atoms: _137  and  _138
REMARK   58  A    between atoms: _137  and  _140
REMARK   59  A    between atoms: _140  and  _141
REMARK   60  A    between atoms: _144  and  _146
REMARK   61  A    between atoms: _146  and  _147
REMARK   62  A    between atoms: _149  and  _151
REMARK   63  A    between atoms: _151  and  _152
REMARK   64  A    between atoms: _155  and  _157
REMARK   65  A    between atoms: _157  and  _158
REMARK   66  A    between atoms: _157  and  _160
REMARK   67  A    between atoms: _160  and  _161
REMARK   68  A    between atoms: _161  and  _162
REMARK   69  A    between atoms: _162  and  _163
REMARK   70  A    between atoms: _172  and  _174
REMARK   71  A    between atoms: _174  and  _175
REMARK   72  A    between atoms: _174  and  _177
REMARK   73  A    between atoms: _177  and  _178
REMARK   74  A    between atoms: _181  and  _183
REMARK   75  A    between atoms: _183  and  _184
REMARK   76  A    between atoms: _183  and  _186
REMARK   77  A    between atoms: _186  and  _187
REMARK   78  A    between atoms: _190  and  _192
REMARK   79  A    between atoms: _192  and  _193
REMARK   80  A    between atoms: _192  and  _195
REMARK   81  A    between atoms: _195  and  _196
REMARK   82  A    between atoms: _196  and  _197
REMARK   83  A    between atoms: _197  and  _198
REMARK   84  A    between atoms: _198  and  _199
REMARK   85  A    between atoms: _203  and  _205
REMARK   86  A    between atoms: _205  and  _206
REMARK   87  A    between atoms: _205  and  _208
REMARK   88  A    between atoms: _208  and  _209
REMARK   89  A    between atoms: _214  and  _216
REMARK   90  A    between atoms: _216  and  _217
REMARK   91  A    between atoms: _219  and  _221
REMARK   92  A    between atoms: _221  and  _222
REMARK   93  A    between atoms: _221  and  _224
REMARK   94  A    between atoms: _224  and  _225
REMARK   95  A    between atoms: _228  and  _230
REMARK   96  A    between atoms: _230  and  _231
REMARK   97  A    between atoms: _230  and  _233
REMARK   98  A    between atoms: _233  and  _234
REMARK   99  A    between atoms: _237  and  _239
REMARK  100  A    between atoms: _239  and  _240
REMARK  101  A    between atoms: _239  and  _242
REMARK  102  A    between atoms: _242  and  _243
REMARK  103  A    between atoms: _246  and  _248
REMARK  104  A    between atoms: _248  and  _249
REMARK  105  A    between atoms: _248  and  _251
REMARK  106  A    between atoms: _251  and  _252
REMARK  107  A    between atoms: _252  and  _253
REMARK  108  A    between atoms: _253  and  _254
REMARK  109  A    between atoms: _263  and  _265
REMARK  110  A    between atoms: _265  and  _266
REMARK  111  A    between atoms: _268  and  _270
REMARK  112  A    between atoms: _270  and  _271
REMARK  113  A    between atoms: _270  and  _273
REMARK  114  A    between atoms: _273  and  _274
REMARK  115  A    between atoms: _277  and  _279
REMARK  116  A    between atoms: _279  and  _280
REMARK  117  A    between atoms: _279  and  _282
REMARK  118  A    between atoms: _282  and  _283
REMARK  119  A    between atoms: _285  and  _287
REMARK  120  A    between atoms: _287  and  _288
REMARK  121  A    between atoms: _287  and  _290
REMARK  122  A    between atoms: _290  and  _291
REMARK  123  A    between atoms: _295  and  MN_368
REMARK  124  A    between atoms: _296  and  _298
REMARK  125  A    between atoms: _298  and  _299
REMARK  126  A    between atoms: _302  and  _304
REMARK  127  A    between atoms: _304  and  _305
REMARK  128  A    between atoms: _304  and  _307
REMARK  129  A    between atoms: _307  and  _308
REMARK  130  A    between atoms: _313  and  _315
REMARK  131  A    between atoms: _315  and  _316
REMARK  132  A    between atoms: _315  and  _318
REMARK  133  A    between atoms: _318  and  _319
REMARK  134  A    between atoms: _319  and  _320
REMARK  135  A    between atoms: _322  and  _324
REMARK  136  A    between atoms: _324  and  _325
REMARK  137  A    between atoms: _324  and  _327
REMARK  138  A    between atoms: _327  and  _328
REMARK  139  A    between atoms: _328  and  _329
REMARK  140  A    between atoms: _329  and  _331
REMARK  141  A    between atoms: _331  and  MN_368
REMARK  142  A    between atoms: _332  and  _334
REMARK  143  A    between atoms: _334  and  _335
REMARK  144  A    between atoms: _334  and  _337
REMARK  145  A    between atoms: _337  and  _338
REMARK  146  A    between atoms: _340  and  _342
REMARK  147  A    between atoms: _342  and  _343
REMARK  148  A    between atoms: _342  and  _345
REMARK  149  A    between atoms: _345  and  _346
REMARK  150  A    between atoms: _349  and  _351
REMARK  151  A    between atoms: _351  and  _352
REMARK  152  A    between atoms: _351  and  _354
REMARK  153  A    between atoms: _354  and  _355
REMARK  154  A    between atoms: _355  and  _357
REMARK  155  A    between atoms: _357  and  MN_368
REMARK  156  A    between atoms: _358  and  _360
REMARK  157  A    between atoms: _360  and  _361
REMARK  158  A    between atoms: _360  and  _363
REMARK  159  A    between atoms: _363  and  _364
REMARK  160  A    between atoms: _364  and  _365
REMARK                            x       y       z     vdW  Elec       q    Type
REMARK                         _______ _______ _______ _____ _____    ______ ____
ROOT
ATOM      1  O   HOH     1     -17.338 -13.853 -44.067  0.00  0.00    +0.000 OA
ENDROOT
TORSDOF 0
REMARK  Name = ../refined-set-2016/4umc/4umc_pocket.pdb
REMARK  160 active torsions:
REMARK  status: ('A' for Active; 'I' for Inactive)
REMARK    1  A    between atoms: _2  and  _3
REMARK    2  A    between atoms: _8  and  _10
REMARK    3  A    between atoms: _10  and  _11
REMARK    4  A    between atoms: _10  and  _13
REMARK    5  A    between atoms: _13  and  _14
REMARK    6  A    between atoms: _14  and  MN_368
REMARK    7  A    between atoms: _15  and  _17
REMARK    8  A    between atoms: _17  and  _18
REMARK    9  A    between atoms: _17  and  _20
REMARK   10  A    between atoms: _20  and  _21
REMARK   11  A    between atoms: _23  and  _25
REMARK   12  A    between atoms: _25  and  _26
REMARK   13  A    between atoms: _25  and  _28
REMARK   14  A    between atoms: _28  and  _29
REMARK   15  A    between atoms: _29  and  _30
REMARK   16  A    between atoms: _30  and  _31
REMARK   17  A    between atoms: _40  and  _42
REMARK   18  A    between atoms: _42  and  _43
REMARK   19  A    between atoms: _42  and  _45
REMARK   20  A    between atoms: _45  and  _46
REMARK   21  A    between atoms: _51  and  _52
REMARK   22  A    between atoms: _54  and  _56
REMARK   23  A    between atoms: _56  and  _57
REMARK   24  A    between atoms: _56  and  _59
REMARK   25  A    between atoms: _59  and  _60
REMARK   26  A    between atoms: _60  and  _61
REMARK   27  A    between atoms: _64  and  _66
REMARK   28  A    between atoms: _66  and  _67
REMARK   29  A    between atoms: _66  and  _69
REMARK   30  A    between atoms: _69  and  _70
REMARK   31  A    between atoms: _70  and  _71
REMARK   32  A    between atoms: _71  and  _72
REMARK   33  A    between atoms: _72  and  _73
REMARK   34  A    between atoms: _78  and  _79
REMARK   35  A    between atoms: _84  and  _86
REMARK   36  A    between atoms: _86  and  _87
REMARK   37  A    between atoms: _86  and  _89
REMARK   38  A    between atoms: _89  and  _90
REMARK   39  A    between atoms: _90  and  _91
REMARK   40  A    between atoms: _91  and  _92
REMARK   41  A    between atoms: _101  and  _103
REMARK   42  A    between atoms: _103  and  _104
REMARK   43  A    between atoms: _103  and  _106
REMARK   44  A    between atoms: _106  and  _107
REMARK   45  A    between atoms: _110  and  _112
REMARK   46  A    between atoms: _112  and  _113
REMARK   47  A    between atoms: _112  and  _115
REMARK   48  A    between atoms: _115  and  _116
REMARK   49  A    between atoms: _119  and  _121
REMARK   50  A    between atoms: _121  and  _122
REMARK   51  A    between atoms: _121  and  _124
REMARK   52  A    between atoms: _124  and  _125
REMARK   53  A    between atoms: _125  and  _126
REMARK   54  A    between atoms: _129  and  _131
REMARK   55  A    between atoms: _131  and  _132
REMARK   56  A    between atoms: _135  and  _137
REMARK   57  A    between atoms: _137  and  _138
REMARK   58  A    between atoms: _137  and  _140
REMARK   59  A    between atoms: _140  and  _141
REMARK   60  A    between atoms: _144  and  _146
REMARK   61  A    between atoms: _146  and  _147
REMARK   62  A    between atoms: _149  and  _151
REMARK   63  A    between atoms: _151  and  _152
REMARK   64  A    between atoms: _155  and  _157
REMARK   65  A    between atoms: _157  and  _158
REMARK   66  A    between atoms: _157  and  _160
REMARK   67  A    between atoms: _160  and  _161
REMARK   68  A    between atoms: _161  and  _162
REMARK   69  A    between atoms: _162  and  _163
REMARK   70  A    between atoms: _172  and  _174
REMARK   71  A    between atoms: _174  and  _175
REMARK   72  A    between atoms: _174  and  _177
REMARK   73  A    between atoms: _177  and  _178
REMARK   74  A    between atoms: _181  and  _183
REMARK   75  A    between atoms: _183  and  _184
REMARK   76  A    between atoms: _183  and  _186
REMARK   77  A    between atoms: _186  and  _187
REMARK   78  A    between atoms: _190  and  _192
REMARK   79  A    between atoms: _192  and  _193
REMARK   80  A    between atoms: _192  and  _195
REMARK   81  A    between atoms: _195  and  _196
REMARK   82  A    between atoms: _196  and  _197
REMARK   83  A    between atoms: _197  and  _198
REMARK   84  A    between atoms: _198  and  _199
REMARK   85  A    between atoms: _203  and  _205
REMARK   86  A    between atoms: _205  and  _206
REMARK   87  A    between atoms: _205  and  _208
REMARK   88  A    between atoms: _208  and  _209
REMARK   89  A    between atoms: _214  and  _216
REMARK   90  A    between atoms: _216  and  _217
REMARK   91  A    between atoms: _219  and  _221
REMARK   92  A    between atoms: _221  and  _222
REMARK   93  A    between atoms: _221  and  _224
REMARK   94  A    between atoms: _224  and  _225
REMARK   95  A    between atoms: _228  and  _230
REMARK   96  A    between atoms: _230  and  _231
REMARK   97  A    between atoms: _230  and  _233
REMARK   98  A    between atoms: _233  and  _234
REMARK   99  A    between atoms: _237  and  _239
REMARK  100  A    between atoms: _239  and  _240
REMARK  101  A    between atoms: _239  and  _242
REMARK  102  A    between atoms: _242  and  _243
REMARK  103  A    between atoms: _246  and  _248
REMARK  104  A    between atoms: _248  and  _249
REMARK  105  A    between atoms: _248  and  _251
REMARK  106  A    between atoms: _251  and  _252
REMARK  107  A    between atoms: _252  and  _253
REMARK  108  A    between atoms: _253  and  _254
REMARK  109  A    between atoms: _263  and  _265
REMARK  110  A    between atoms: _265  and  _266
REMARK  111  A    between atoms: _268  and  _270
REMARK  112  A    between atoms: _270  and  _271
REMARK  113  A    between atoms: _270  and  _273
REMARK  114  A    between atoms: _273  and  _274
REMARK  115  A    between atoms: _277  and  _279
REMARK  116  A    between atoms: _279  and  _280
REMARK  117  A    between atoms: _279  and  _282
REMARK  118  A    between atoms: _282  and  _283
REMARK  119  A    between atoms: _285  and  _287
REMARK  120  A    between atoms: _287  and  _288
REMARK  121  A    between atoms: _287  and  _290
REMARK  122  A    between atoms: _290  and  _291
REMARK  123  A    between atoms: _295  and  MN_368
REMARK  124  A    between atoms: _296  and  _298
REMARK  125  A    between atoms: _298  and  _299
REMARK  126  A    between atoms: _302  and  _304
REMARK  127  A    between atoms: _304  and  _305
REMARK  128  A    between atoms: _304  and  _307
REMARK  129  A    between atoms: _307  and  _308
REMARK  130  A    between atoms: _313  and  _315
REMARK  131  A    between atoms: _315  and  _316
REMARK  132  A    between atoms: _315  and  _318
REMARK  133  A    between atoms: _318  and  _319
REMARK  134  A    between atoms: _319  and  _320
REMARK  135  A    between atoms: _322  and  _324
REMARK  136  A    between atoms: _324  and  _325
REMARK  137  A    between atoms: _324  and  _327
REMARK  138  A    between atoms: _327  and  _328
REMARK  139  A    between atoms: _328  and  _329
REMARK  140  A    between atoms: _329  and  _331
REMARK  141  A    between atoms: _331  and  MN_368
REMARK  142  A    between atoms: _332  and  _334
REMARK  143  A    between atoms: _334  and  _335
REMARK  144  A    between atoms: _334  and  _337
REMARK  145  A    between atoms: _337  and  _338
REMARK  146  A    between atoms: _340  and  _342
REMARK  147  A    between atoms: _342  and  _343
REMARK  148  A    between atoms: _342  and  _345
REMARK  149  A    between atoms: _345  and  _346
REMARK  150  A    between atoms: _349  and  _351
REMARK  151  A    between atoms: _351  and  _352
REMARK  152  A    between atoms: _351  and  _354
REMARK  153  A    between atoms: _354  and  _355
REMARK  154  A    between atoms: _355  and  _357
REMARK  155  A    between atoms: _357  and  MN_368
REMARK  156  A    between atoms: _358  and  _360
REMARK  157  A    between atoms: _360  and  _361
REMARK  158  A    between atoms: _360  and  _363
REMARK  159  A    between atoms: _363  and  _364
REMARK  160  A    between atoms: _364  and  _365
REMARK                            x       y       z     vdW  Elec       q    Type
REMARK                         _______ _______ _______ _____ _____    ______ ____
ROOT
ATOM      1  O   HOH     1     -29.415 -19.135 -43.284  0.00  0.00    +0.000 OA
ENDROOT
TORSDOF 0
REMARK  Name = ../refined-set-2016/4umc/4umc_pocket.pdb
REMARK  160 active torsions:
REMARK  status: ('A' for Active; 'I' for Inactive)
REMARK    1  A    between atoms: _2  and  _3
REMARK    2  A    between atoms: _8  and  _10
REMARK    3  A    between atoms: _10  and  _11
REMARK    4  A    between atoms: _10  and  _13
REMARK    5  A    between atoms: _13  and  _14
REMARK    6  A    between atoms: _14  and  MN_368
REMARK    7  A    between atoms: _15  and  _17
REMARK    8  A    between atoms: _17  and  _18
REMARK    9  A    between atoms: _17  and  _20
REMARK   10  A    between atoms: _20  and  _21
REMARK   11  A    between atoms: _23  and  _25
REMARK   12  A    between atoms: _25  and  _26
REMARK   13  A    between atoms: _25  and  _28
REMARK   14  A    between atoms: _28  and  _29
REMARK   15  A    between atoms: _29  and  _30
REMARK   16  A    between atoms: _30  and  _31
REMARK   17  A    between atoms: _40  and  _42
REMARK   18  A    between atoms: _42  and  _43
REMARK   19  A    between atoms: _42  and  _45
REMARK   20  A    between atoms: _45  and  _46
REMARK   21  A    between atoms: _51  and  _52
REMARK   22  A    between atoms: _54  and  _56
REMARK   23  A    between atoms: _56  and  _57
REMARK   24  A    between atoms: _56  and  _59
REMARK   25  A    between atoms: _59  and  _60
REMARK   26  A    between atoms: _60  and  _61
REMARK   27  A    between atoms: _64  and  _66
REMARK   28  A    between atoms: _66  and  _67
REMARK   29  A    between atoms: _66  and  _69
REMARK   30  A    between atoms: _69  and  _70
REMARK   31  A    between atoms: _70  and  _71
REMARK   32  A    between atoms: _71  and  _72
REMARK   33  A    between atoms: _72  and  _73
REMARK   34  A    between atoms: _78  and  _79
REMARK   35  A    between atoms: _84  and  _86
REMARK   36  A    between atoms: _86  and  _87
REMARK   37  A    between atoms: _86  and  _89
REMARK   38  A    between atoms: _89  and  _90
REMARK   39  A    between atoms: _90  and  _91
REMARK   40  A    between atoms: _91  and  _92
REMARK   41  A    between atoms: _101  and  _103
REMARK   42  A    between atoms: _103  and  _104
REMARK   43  A    between atoms: _103  and  _106
REMARK   44  A    between atoms: _106  and  _107
REMARK   45  A    between atoms: _110  and  _112
REMARK   46  A    between atoms: _112  and  _113
REMARK   47  A    between atoms: _112  and  _115
REMARK   48  A    between atoms: _115  and  _116
REMARK   49  A    between atoms: _119  and  _121
REMARK   50  A    between atoms: _121  and  _122
REMARK   51  A    between atoms: _121  and  _124
REMARK   52  A    between atoms: _124  and  _125
REMARK   53  A    between atoms: _125  and  _126
REMARK   54  A    between atoms: _129  and  _131
REMARK   55  A    between atoms: _131  and  _132
REMARK   56  A    between atoms: _135  and  _137
REMARK   57  A    between atoms: _137  and  _138
REMARK   58  A    between atoms: _137  and  _140
REMARK   59  A    between atoms: _140  and  _141
REMARK   60  A    between atoms: _144  and  _146
REMARK   61  A    between atoms: _146  and  _147
REMARK   62  A    between atoms: _149  and  _151
REMARK   63  A    between atoms: _151  and  _152
REMARK   64  A    between atoms: _155  and  _157
REMARK   65  A    between atoms: _157  and  _158
REMARK   66  A    between atoms: _157  and  _160
REMARK   67  A    between atoms: _160  and  _161
REMARK   68  A    between atoms: _161  and  _162
REMARK   69  A    between atoms: _162  and  _163
REMARK   70  A    between atoms: _172  and  _174
REMARK   71  A    between atoms: _174  and  _175
REMARK   72  A    between atoms: _174  and  _177
REMARK   73  A    between atoms: _177  and  _178
REMARK   74  A    between atoms: _181  and  _183
REMARK   75  A    between atoms: _183  and  _184
REMARK   76  A    between atoms: _183  and  _186
REMARK   77  A    between atoms: _186  and  _187
REMARK   78  A    between atoms: _190  and  _192
REMARK   79  A    between atoms: _192  and  _193
REMARK   80  A    between atoms: _192  and  _195
REMARK   81  A    between atoms: _195  and  _196
REMARK   82  A    between atoms: _196  and  _197
REMARK   83  A    between atoms: _197  and  _198
REMARK   84  A    between atoms: _198  and  _199
REMARK   85  A    between atoms: _203  and  _205
REMARK   86  A    between atoms: _205  and  _206
REMARK   87  A    between atoms: _205  and  _208
REMARK   88  A    between atoms: _208  and  _209
REMARK   89  A    between atoms: _214  and  _216
REMARK   90  A    between atoms: _216  and  _217
REMARK   91  A    between atoms: _219  and  _221
REMARK   92  A    between atoms: _221  and  _222
REMARK   93  A    between atoms: _221  and  _224
REMARK   94  A    between atoms: _224  and  _225
REMARK   95  A    between atoms: _228  and  _230
REMARK   96  A    between atoms: _230  and  _231
REMARK   97  A    between atoms: _230  and  _233
REMARK   98  A    between atoms: _233  and  _234
REMARK   99  A    between atoms: _237  and  _239
REMARK  100  A    between atoms: _239  and  _240
REMARK  101  A    between atoms: _239  and  _242
REMARK  102  A    between atoms: _242  and  _243
REMARK  103  A    between atoms: _246  and  _248
REMARK  104  A    between atoms: _248  and  _249
REMARK  105  A    between atoms: _248  and  _251
REMARK  106  A    between atoms: _251  and  _252
REMARK  107  A    between atoms: _252  and  _253
REMARK  108  A    between atoms: _253  and  _254
REMARK  109  A    between atoms: _263  and  _265
REMARK  110  A    between atoms: _265  and  _266
REMARK  111  A    between atoms: _268  and  _270
REMARK  112  A    between atoms: _270  and  _271
REMARK  113  A    between atoms: _270  and  _273
REMARK  114  A    between atoms: _273  and  _274
REMARK  115  A    between atoms: _277  and  _279
REMARK  116  A    between atoms: _279  and  _280
REMARK  117  A    between atoms: _279  and  _282
REMARK  118  A    between atoms: _282  and  _283
REMARK  119  A    between atoms: _285  and  _287
REMARK  120  A    between atoms: _287  and  _288
REMARK  121  A    between atoms: _287  and  _290
REMARK  122  A    between atoms: _290  and  _291
REMARK  123  A    between atoms: _295  and  MN_368
REMARK  124  A    between atoms: _296  and  _298
REMARK  125  A    between atoms: _298  and  _299
REMARK  126  A    between atoms: _302  and  _304
REMARK  127  A    between atoms: _304  and  _305
REMARK  128  A    between atoms: _304  and  _307
REMARK  129  A    between atoms: _307  and  _308
REMARK  130  A    between atoms: _313  and  _315
REMARK  131  A    between atoms: _315  and  _316
REMARK  132  A    between atoms: _315  and  _318
REMARK  133  A    between atoms: _318  and  _319
REMARK  134  A    between atoms: _319  and  _320
REMARK  135  A    between atoms: _322  and  _324
REMARK  136  A    between atoms: _324  and  _325
REMARK  137  A    between atoms: _324  and  _327
REMARK  138  A    between atoms: _327  and  _328
REMARK  139  A    between atoms: _328  and  _329
REMARK  140  A    between atoms: _329  and  _331
REMARK  141  A    between atoms: _331  and  MN_368
REMARK  142  A    between atoms: _332  and  _334
REMARK  143  A    between atoms: _334  and  _335
REMARK  144  A    between atoms: _334  and  _337
REMARK  145  A    between atoms: _337  and  _338
REMARK  146  A    between atoms: _340  and  _342
REMARK  147  A    between atoms: _342  and  _343
REMARK  148  A    between atoms: _342  and  _345
REMARK  149  A    between atoms: _345  and  _346
REMARK  150  A    between atoms: _349  and  _351
REMARK  151  A    between atoms: _351  and  _352
REMARK  152  A    between atoms: _351  and  _354
REMARK  153  A    between atoms: _354  and  _355
REMARK  154  A    between atoms: _355  and  _357
REMARK  155  A    between atoms: _357  and  MN_368
REMARK  156  A    between atoms: _358  and  _360
REMARK  157  A    between atoms: _360  and  _361
REMARK  158  A    between atoms: _360  and  _363
REMARK  159  A    between atoms: _363  and  _364
REMARK  160  A    between atoms: _364  and  _365
REMARK                            x       y       z     vdW  Elec       q    Type
REMARK                         _______ _______ _______ _____ _____    ______ ____
ROOT
ATOM      1  O   HOH     1     -28.569 -12.317 -43.989  0.00  0.00    +0.000 OA
ENDROOT
TORSDOF 0
REMARK  Name = ../refined-set-2016/4umc/4umc_pocket.pdb
REMARK  160 active torsions:
REMARK  status: ('A' for Active; 'I' for Inactive)
REMARK    1  A    between atoms: _2  and  _3
REMARK    2  A    between atoms: _8  and  _10
REMARK    3  A    between atoms: _10  and  _11
REMARK    4  A    between atoms: _10  and  _13
REMARK    5  A    between atoms: _13  and  _14
REMARK    6  A    between atoms: _14  and  MN_368
REMARK    7  A    between atoms: _15  and  _17
REMARK    8  A    between atoms: _17  and  _18
REMARK    9  A    between atoms: _17  and  _20
REMARK   10  A    between atoms: _20  and  _21
REMARK   11  A    between atoms: _23  and  _25
REMARK   12  A    between atoms: _25  and  _26
REMARK   13  A    between atoms: _25  and  _28
REMARK   14  A    between atoms: _28  and  _29
REMARK   15  A    between atoms: _29  and  _30
REMARK   16  A    between atoms: _30  and  _31
REMARK   17  A    between atoms: _40  and  _42
REMARK   18  A    between atoms: _42  and  _43
REMARK   19  A    between atoms: _42  and  _45
REMARK   20  A    between atoms: _45  and  _46
REMARK   21  A    between atoms: _51  and  _52
REMARK   22  A    between atoms: _54  and  _56
REMARK   23  A    between atoms: _56  and  _57
REMARK   24  A    between atoms: _56  and  _59
REMARK   25  A    between atoms: _59  and  _60
REMARK   26  A    between atoms: _60  and  _61
REMARK   27  A    between atoms: _64  and  _66
REMARK   28  A    between atoms: _66  and  _67
REMARK   29  A    between atoms: _66  and  _69
REMARK   30  A    between atoms: _69  and  _70
REMARK   31  A    between atoms: _70  and  _71
REMARK   32  A    between atoms: _71  and  _72
REMARK   33  A    between atoms: _72  and  _73
REMARK   34  A    between atoms: _78  and  _79
REMARK   35  A    between atoms: _84  and  _86
REMARK   36  A    between atoms: _86  and  _87
REMARK   37  A    between atoms: _86  and  _89
REMARK   38  A    between atoms: _89  and  _90
REMARK   39  A    between atoms: _90  and  _91
REMARK   40  A    between atoms: _91  and  _92
REMARK   41  A    between atoms: _101  and  _103
REMARK   42  A    between atoms: _103  and  _104
REMARK   43  A    between atoms: _103  and  _106
REMARK   44  A    between atoms: _106  and  _107
REMARK   45  A    between atoms: _110  and  _112
REMARK   46  A    between atoms: _112  and  _113
REMARK   47  A    between atoms: _112  and  _115
REMARK   48  A    between atoms: _115  and  _116
REMARK   49  A    between atoms: _119  and  _121
REMARK   50  A    between atoms: _121  and  _122
REMARK   51  A    between atoms: _121  and  _124
REMARK   52  A    between atoms: _124  and  _125
REMARK   53  A    between atoms: _125  and  _126
REMARK   54  A    between atoms: _129  and  _131
REMARK   55  A    between atoms: _131  and  _132
REMARK   56  A    between atoms: _135  and  _137
REMARK   57  A    between atoms: _137  and  _138
REMARK   58  A    between atoms: _137  and  _140
REMARK   59  A    between atoms: _140  and  _141
REMARK   60  A    between atoms: _144  and  _146
REMARK   61  A    between atoms: _146  and  _147
REMARK   62  A    between atoms: _149  and  _151
REMARK   63  A    between atoms: _151  and  _152
REMARK   64  A    between atoms: _155  and  _157
REMARK   65  A    between atoms: _157  and  _158
REMARK   66  A    between atoms: _157  and  _160
REMARK   67  A    between atoms: _160  and  _161
REMARK   68  A    between atoms: _161  and  _162
REMARK   69  A    between atoms: _162  and  _163
REMARK   70  A    between atoms: _172  and  _174
REMARK   71  A    between atoms: _174  and  _175
REMARK   72  A    between atoms: _174  and  _177
REMARK   73  A    between atoms: _177  and  _178
REMARK   74  A    between atoms: _181  and  _183
REMARK   75  A    between atoms: _183  and  _184
REMARK   76  A    between atoms: _183  and  _186
REMARK   77  A    between atoms: _186  and  _187
REMARK   78  A    between atoms: _190  and  _192
REMARK   79  A    between atoms: _192  and  _193
REMARK   80  A    between atoms: _192  and  _195
REMARK   81  A    between atoms: _195  and  _196
REMARK   82  A    between atoms: _196  and  _197
REMARK   83  A    between atoms: _197  and  _198
REMARK   84  A    between atoms: _198  and  _199
REMARK   85  A    between atoms: _203  and  _205
REMARK   86  A    between atoms: _205  and  _206
REMARK   87  A    between atoms: _205  and  _208
REMARK   88  A    between atoms: _208  and  _209
REMARK   89  A    between atoms: _214  and  _216
REMARK   90  A    between atoms: _216  and  _217
REMARK   91  A    between atoms: _219  and  _221
REMARK   92  A    between atoms: _221  and  _222
REMARK   93  A    between atoms: _221  and  _224
REMARK   94  A    between atoms: _224  and  _225
REMARK   95  A    between atoms: _228  and  _230
REMARK   96  A    between atoms: _230  and  _231
REMARK   97  A    between atoms: _230  and  _233
REMARK   98  A    between atoms: _233  and  _234
REMARK   99  A    between atoms: _237  and  _239
REMARK  100  A    between atoms: _239  and  _240
REMARK  101  A    between atoms: _239  and  _242
REMARK  102  A    between atoms: _242  and  _243
REMARK  103  A    between atoms: _246  and  _248
REMARK  104  A    between atoms: _248  and  _249
REMARK  105  A    between atoms: _248  and  _251
REMARK  106  A    between atoms: _251  and  _252
REMARK  107  A    between atoms: _252  and  _253
REMARK  108  A    between atoms: _253  and  _254
REMARK  109  A    between atoms: _263  and  _265
REMARK  110  A    between atoms: _265  and  _266
REMARK  111  A    between atoms: _268  and  _270
REMARK  112  A    between atoms: _270  and  _271
REMARK  113  A    between atoms: _270  and  _273
REMARK  114  A    between atoms: _273  and  _274
REMARK  115  A    between atoms: _277  and  _279
REMARK  116  A    between atoms: _279  and  _280
REMARK  117  A    between atoms: _279  and  _282
REMARK  118  A    between atoms: _282  and  _283
REMARK  119  A    between atoms: _285  and  _287
REMARK  120  A    between atoms: _287  and  _288
REMARK  121  A    between atoms: _287  and  _290
REMARK  122  A    between atoms: _290  and  _291
REMARK  123  A    between atoms: _295  and  MN_368
REMARK  124  A    between atoms: _296  and  _298
REMARK  125  A    between atoms: _298  and  _299
REMARK  126  A    between atoms: _302  and  _304
REMARK  127  A    between atoms: _304  and  _305
REMARK  128  A    between atoms: _304  and  _307
REMARK  129  A    between atoms: _307  and  _308
REMARK  130  A    between atoms: _313  and  _315
REMARK  131  A    between atoms: _315  and  _316
REMARK  132  A    between atoms: _315  and  _318
REMARK  133  A    between atoms: _318  and  _319
REMARK  134  A    between atoms: _319  and  _320
REMARK  135  A    between atoms: _322  and  _324
REMARK  136  A    between atoms: _324  and  _325
REMARK  137  A    between atoms: _324  and  _327
REMARK  138  A    between atoms: _327  and  _328
REMARK  139  A    between atoms: _328  and  _329
REMARK  140  A    between atoms: _329  and  _331
REMARK  141  A    between atoms: _331  and  MN_368
REMARK  142  A    between atoms: _332  and  _334
REMARK  143  A    between atoms: _334  and  _335
REMARK  144  A    between atoms: _334  and  _337
REMARK  145  A    between atoms: _337  and  _338
REMARK  146  A    between atoms: _340  and  _342
REMARK  147  A    between atoms: _342  and  _343
REMARK  148  A    between atoms: _342  and  _345
REMARK  149  A    between atoms: _345  and  _346
REMARK  150  A    between atoms: _349  and  _351
REMARK  151  A    between atoms: _351  and  _352
REMARK  152  A    between atoms: _351  and  _354
REMARK  153  A    between atoms: _354  and  _355
REMARK  154  A    between atoms: _355  and  _357
REMARK  155  A    between atoms: _357  and  MN_368
REMARK  156  A    between atoms: _358  and  _360
REMARK  157  A    between atoms: _360  and  _361
REMARK  158  A    between atoms: _360  and  _363
REMARK  159  A    between atoms: _363  and  _364
REMARK  160  A    between atoms: _364  and  _365
REMARK                            x       y       z     vdW  Elec       q    Type
REMARK                         _______ _______ _______ _____ _____    ______ ____
ROOT
ATOM      1  O   HOH     1     -18.408 -10.594 -37.558  0.00  0.00    +0.000 OA
ENDROOT
TORSDOF 0
