REMARK  Name = ../refined-set-2016/4n8q/4n8q_pocket.pdb
REMARK  95 active torsions:
REMARK  status: ('A' for Active; 'I' for Inactive)
REMARK    1  A    between atoms: _1  and  _3
REMARK    2  A    between atoms: _3  and  _4
REMARK    3  A    between atoms: _3  and  _6
REMARK    4  A    between atoms: _6  and  _7
REMARK    5  A    between atoms: _7  and  _8
REMARK    6  A    between atoms: _10  and  _12
REMARK    7  A    between atoms: _12  and  _13
REMARK    8  A    between atoms: _12  and  _15
REMARK    9  A    between atoms: _15  and  _16
REMARK   10  A    between atoms: _16  and  _17
REMARK   11  A    between atoms: _19  and  _21
REMARK   12  A    between atoms: _21  and  _22
REMARK   13  A    between atoms: _21  and  _24
REMARK   14  A    between atoms: _24  and  _25
REMARK   15  A    between atoms: _30  and  _32
REMARK   16  A    between atoms: _32  and  _33
REMARK   17  A    between atoms: _35  and  _37
REMARK   18  A    between atoms: _37  and  _38
REMARK   19  A    between atoms: _37  and  _40
REMARK   20  A    between atoms: _40  and  _41
REMARK   21  A    between atoms: _46  and  _48
REMARK   22  A    between atoms: _48  and  _49
REMARK   23  A    between atoms: _48  and  _51
REMARK   24  A    between atoms: _51  and  _52
REMARK   25  A    between atoms: _52  and  _53
REMARK   26  A    between atoms: _53  and  _54
REMARK   27  A    between atoms: _63  and  _65
REMARK   28  A    between atoms: _65  and  _66
REMARK   29  A    between atoms: _65  and  _68
REMARK   30  A    between atoms: _68  and  _69
REMARK   31  A    between atoms: _75  and  _77
REMARK   32  A    between atoms: _77  and  _78
REMARK   33  A    between atoms: _82  and  _83
REMARK   34  A    between atoms: _88  and  _90
REMARK   35  A    between atoms: _90  and  _91
REMARK   36  A    between atoms: _90  and  _93
REMARK   37  A    between atoms: _93  and  _94
REMARK   38  A    between atoms: _94  and  _95
REMARK   39  A    between atoms: _95  and  _96
REMARK   40  A    between atoms: _105  and  _107
REMARK   41  A    between atoms: _107  and  _108
REMARK   42  A    between atoms: _107  and  _110
REMARK   43  A    between atoms: _110  and  _111
REMARK   44  A    between atoms: _117  and  _119
REMARK   45  A    between atoms: _119  and  _120
REMARK   46  A    between atoms: _119  and  _122
REMARK   47  A    between atoms: _122  and  _123
REMARK   48  A    between atoms: _129  and  _130
REMARK   49  A    between atoms: _135  and  _137
REMARK   50  A    between atoms: _137  and  _138
REMARK   51  A    between atoms: _137  and  _140
REMARK   52  A    between atoms: _140  and  _141
REMARK   53  A    between atoms: _143  and  _145
REMARK   54  A    between atoms: _145  and  _146
REMARK   55  A    between atoms: _145  and  _148
REMARK   56  A    between atoms: _148  and  _149
REMARK   57  A    between atoms: _154  and  _155
REMARK   58  A    between atoms: _157  and  _159
REMARK   59  A    between atoms: _159  and  _160
REMARK   60  A    between atoms: _159  and  _162
REMARK   61  A    between atoms: _162  and  _163
REMARK   62  A    between atoms: _163  and  _164
REMARK   63  A    between atoms: _164  and  _165
REMARK   64  A    between atoms: _174  and  _176
REMARK   65  A    between atoms: _176  and  _177
REMARK   66  A    between atoms: _176  and  _179
REMARK   67  A    between atoms: _179  and  _180
REMARK   68  A    between atoms: _185  and  _187
REMARK   69  A    between atoms: _187  and  _188
REMARK   70  A    between atoms: _191  and  _193
REMARK   71  A    between atoms: _193  and  _194
REMARK   72  A    between atoms: _197  and  _199
REMARK   73  A    between atoms: _199  and  _200
REMARK   74  A    between atoms: _203  and  _205
REMARK   75  A    between atoms: _205  and  _206
REMARK   76  A    between atoms: _205  and  _208
REMARK   77  A    between atoms: _208  and  _209
REMARK   78  A    between atoms: _209  and  _210
REMARK   79  A    between atoms: _210  and  _211
REMARK   80  A    between atoms: _220  and  _222
REMARK   81  A    between atoms: _222  and  _223
REMARK   82  A    between atoms: _222  and  _225
REMARK   83  A    between atoms: _225  and  _226
REMARK   84  A    between atoms: _226  and  _227
REMARK   85  A    between atoms: _227  and  _228
REMARK   86  A    between atoms: _237  and  _239
REMARK   87  A    between atoms: _239  and  _240
REMARK   88  A    between atoms: _239  and  _242
REMARK   89  A    between atoms: _242  and  _243
REMARK   90  A    between atoms: _246  and  _248
REMARK   91  A    between atoms: _248  and  _249
REMARK   92  A    between atoms: _251  and  _253
REMARK   93  A    between atoms: _253  and  _254
REMARK   94  A    between atoms: _253  and  _256
REMARK   95  A    between atoms: _256  and  _257
REMARK                            x       y       z     vdW  Elec       q    Type
REMARK                         _______ _______ _______ _____ _____    ______ ____
ROOT
ATOM      1  CA  MET A   1      -6.889 -35.357  15.488  0.00  0.00    +0.134 C 
ENDROOT
BRANCH   1   2
ATOM      2  N   MET A   1      -6.081 -34.661  16.511  0.00  0.00    -0.239 NA
ATOM      3  H   MET A   1      -5.275 -34.073  16.219  0.00  0.00    +0.142 HD
ENDBRANCH   1   2
BRANCH   1   4
ATOM      4  C   MET A   1      -6.469 -36.804  15.327  0.00  0.00    +0.224 C 
ATOM      5  O   MET A   1      -7.178 -37.585  14.706  0.00  0.00    -0.287 OA
ENDBRANCH   1   4
BRANCH   1   6
ATOM      6  CB  MET A   1      -6.794 -34.679  14.118  0.00  0.00    +0.037 C 
BRANCH   6   7
ATOM      7  CG  MET A   1      -7.244 -33.206  14.015  0.00  0.00    +0.059 C 
BRANCH   7   8
ATOM      8  SD  MET A   1      -9.018 -32.915  14.272  0.00  0.00    -0.139 S 
ATOM      9  CE  MET A   1      -9.703 -34.001  13.014  0.00  0.00    +0.069 C 
ENDBRANCH   7   8
ENDBRANCH   6   7
ENDBRANCH   1   6
TORSDOF 5
REMARK  Name = ../refined-set-2016/4n8q/4n8q_pocket.pdb
REMARK  95 active torsions:
REMARK  status: ('A' for Active; 'I' for Inactive)
REMARK    1  A    between atoms: _1  and  _3
REMARK    2  A    between atoms: _3  and  _4
REMARK    3  A    between atoms: _3  and  _6
REMARK    4  A    between atoms: _6  and  _7
REMARK    5  A    between atoms: _7  and  _8
REMARK    6  A    between atoms: _10  and  _12
REMARK    7  A    between atoms: _12  and  _13
REMARK    8  A    between atoms: _12  and  _15
REMARK    9  A    between atoms: _15  and  _16
REMARK   10  A    between atoms: _16  and  _17
REMARK   11  A    between atoms: _19  and  _21
REMARK   12  A    between atoms: _21  and  _22
REMARK   13  A    between atoms: _21  and  _24
REMARK   14  A    between atoms: _24  and  _25
REMARK   15  A    between atoms: _30  and  _32
REMARK   16  A    between atoms: _32  and  _33
REMARK   17  A    between atoms: _35  and  _37
REMARK   18  A    between atoms: _37  and  _38
REMARK   19  A    between atoms: _37  and  _40
REMARK   20  A    between atoms: _40  and  _41
REMARK   21  A    between atoms: _46  and  _48
REMARK   22  A    between atoms: _48  and  _49
REMARK   23  A    between atoms: _48  and  _51
REMARK   24  A    between atoms: _51  and  _52
REMARK   25  A    between atoms: _52  and  _53
REMARK   26  A    between atoms: _53  and  _54
REMARK   27  A    between atoms: _63  and  _65
REMARK   28  A    between atoms: _65  and  _66
REMARK   29  A    between atoms: _65  and  _68
REMARK   30  A    between atoms: _68  and  _69
REMARK   31  A    between atoms: _75  and  _77
REMARK   32  A    between atoms: _77  and  _78
REMARK   33  A    between atoms: _82  and  _83
REMARK   34  A    between atoms: _88  and  _90
REMARK   35  A    between atoms: _90  and  _91
REMARK   36  A    between atoms: _90  and  _93
REMARK   37  A    between atoms: _93  and  _94
REMARK   38  A    between atoms: _94  and  _95
REMARK   39  A    between atoms: _95  and  _96
REMARK   40  A    between atoms: _105  and  _107
REMARK   41  A    between atoms: _107  and  _108
REMARK   42  A    between atoms: _107  and  _110
REMARK   43  A    between atoms: _110  and  _111
REMARK   44  A    between atoms: _117  and  _119
REMARK   45  A    between atoms: _119  and  _120
REMARK   46  A    between atoms: _119  and  _122
REMARK   47  A    between atoms: _122  and  _123
REMARK   48  A    between atoms: _129  and  _130
REMARK   49  A    between atoms: _135  and  _137
REMARK   50  A    between atoms: _137  and  _138
REMARK   51  A    between atoms: _137  and  _140
REMARK   52  A    between atoms: _140  and  _141
REMARK   53  A    between atoms: _143  and  _145
REMARK   54  A    between atoms: _145  and  _146
REMARK   55  A    between atoms: _145  and  _148
REMARK   56  A    between atoms: _148  and  _149
REMARK   57  A    between atoms: _154  and  _155
REMARK   58  A    between atoms: _157  and  _159
REMARK   59  A    between atoms: _159  and  _160
REMARK   60  A    between atoms: _159  and  _162
REMARK   61  A    between atoms: _162  and  _163
REMARK   62  A    between atoms: _163  and  _164
REMARK   63  A    between atoms: _164  and  _165
REMARK   64  A    between atoms: _174  and  _176
REMARK   65  A    between atoms: _176  and  _177
REMARK   66  A    between atoms: _176  and  _179
REMARK   67  A    between atoms: _179  and  _180
REMARK   68  A    between atoms: _185  and  _187
REMARK   69  A    between atoms: _187  and  _188
REMARK   70  A    between atoms: _191  and  _193
REMARK   71  A    between atoms: _193  and  _194
REMARK   72  A    between atoms: _197  and  _199
REMARK   73  A    between atoms: _199  and  _200
REMARK   74  A    between atoms: _203  and  _205
REMARK   75  A    between atoms: _205  and  _206
REMARK   76  A    between atoms: _205  and  _208
REMARK   77  A    between atoms: _208  and  _209
REMARK   78  A    between atoms: _209  and  _210
REMARK   79  A    between atoms: _210  and  _211
REMARK   80  A    between atoms: _220  and  _222
REMARK   81  A    between atoms: _222  and  _223
REMARK   82  A    between atoms: _222  and  _225
REMARK   83  A    between atoms: _225  and  _226
REMARK   84  A    between atoms: _226  and  _227
REMARK   85  A    between atoms: _227  and  _228
REMARK   86  A    between atoms: _237  and  _239
REMARK   87  A    between atoms: _239  and  _240
REMARK   88  A    between atoms: _239  and  _242
REMARK   89  A    between atoms: _242  and  _243
REMARK   90  A    between atoms: _246  and  _248
REMARK   91  A    between atoms: _248  and  _249
REMARK   92  A    between atoms: _251  and  _253
REMARK   93  A    between atoms: _253  and  _254
REMARK   94  A    between atoms: _253  and  _256
REMARK   95  A    between atoms: _256  and  _257
REMARK                            x       y       z     vdW  Elec       q    Type
REMARK                         _______ _______ _______ _____ _____    ______ ____
ROOT
ATOM      1  CA  MET A   1      -8.545 -30.558  10.602  0.00  0.00    +0.134 C 
ENDROOT
BRANCH   1   2
ATOM      2  N   MET A   1      -7.260 -29.866  10.433  0.00  0.00    -0.239 NA
ATOM      3  H   MET A   1      -7.147 -28.873  10.722  0.00  0.00    +0.142 HD
ENDBRANCH   1   2
BRANCH   1   4
ATOM      4  C   MET A   1      -9.106 -31.011   9.244  0.00  0.00    +0.224 C 
ATOM      5  O   MET A   1      -9.545 -32.175   9.064  0.00  0.00    -0.287 OA
ENDBRANCH   1   4
BRANCH   1   6
ATOM      6  CB  MET A   1      -9.499 -29.633  11.347  0.00  0.00    +0.037 C 
BRANCH   6   7
ATOM      7  CG  MET A   1     -10.850 -30.153  11.450  0.00  0.00    +0.059 C 
BRANCH   7   8
ATOM      8  SD  MET A   1     -11.823 -29.304  12.694  0.00  0.00    -0.139 S 
ATOM      9  CE  MET A   1     -13.267 -30.328  12.474  0.00  0.00    +0.069 C 
ENDBRANCH   7   8
ENDBRANCH   6   7
ENDBRANCH   1   6
TORSDOF 5
REMARK  Name = ../refined-set-2016/4n8q/4n8q_pocket.pdb
REMARK  95 active torsions:
REMARK  status: ('A' for Active; 'I' for Inactive)
REMARK    1  A    between atoms: _1  and  _3
REMARK    2  A    between atoms: _3  and  _4
REMARK    3  A    between atoms: _3  and  _6
REMARK    4  A    between atoms: _6  and  _7
REMARK    5  A    between atoms: _7  and  _8
REMARK    6  A    between atoms: _10  and  _12
REMARK    7  A    between atoms: _12  and  _13
REMARK    8  A    between atoms: _12  and  _15
REMARK    9  A    between atoms: _15  and  _16
REMARK   10  A    between atoms: _16  and  _17
REMARK   11  A    between atoms: _19  and  _21
REMARK   12  A    between atoms: _21  and  _22
REMARK   13  A    between atoms: _21  and  _24
REMARK   14  A    between atoms: _24  and  _25
REMARK   15  A    between atoms: _30  and  _32
REMARK   16  A    between atoms: _32  and  _33
REMARK   17  A    between atoms: _35  and  _37
REMARK   18  A    between atoms: _37  and  _38
REMARK   19  A    between atoms: _37  and  _40
REMARK   20  A    between atoms: _40  and  _41
REMARK   21  A    between atoms: _46  and  _48
REMARK   22  A    between atoms: _48  and  _49
REMARK   23  A    between atoms: _48  and  _51
REMARK   24  A    between atoms: _51  and  _52
REMARK   25  A    between atoms: _52  and  _53
REMARK   26  A    between atoms: _53  and  _54
REMARK   27  A    between atoms: _63  and  _65
REMARK   28  A    between atoms: _65  and  _66
REMARK   29  A    between atoms: _65  and  _68
REMARK   30  A    between atoms: _68  and  _69
REMARK   31  A    between atoms: _75  and  _77
REMARK   32  A    between atoms: _77  and  _78
REMARK   33  A    between atoms: _82  and  _83
REMARK   34  A    between atoms: _88  and  _90
REMARK   35  A    between atoms: _90  and  _91
REMARK   36  A    between atoms: _90  and  _93
REMARK   37  A    between atoms: _93  and  _94
REMARK   38  A    between atoms: _94  and  _95
REMARK   39  A    between atoms: _95  and  _96
REMARK   40  A    between atoms: _105  and  _107
REMARK   41  A    between atoms: _107  and  _108
REMARK   42  A    between atoms: _107  and  _110
REMARK   43  A    between atoms: _110  and  _111
REMARK   44  A    between atoms: _117  and  _119
REMARK   45  A    between atoms: _119  and  _120
REMARK   46  A    between atoms: _119  and  _122
REMARK   47  A    between atoms: _122  and  _123
REMARK   48  A    between atoms: _129  and  _130
REMARK   49  A    between atoms: _135  and  _137
REMARK   50  A    between atoms: _137  and  _138
REMARK   51  A    between atoms: _137  and  _140
REMARK   52  A    between atoms: _140  and  _141
REMARK   53  A    between atoms: _143  and  _145
REMARK   54  A    between atoms: _145  and  _146
REMARK   55  A    between atoms: _145  and  _148
REMARK   56  A    between atoms: _148  and  _149
REMARK   57  A    between atoms: _154  and  _155
REMARK   58  A    between atoms: _157  and  _159
REMARK   59  A    between atoms: _159  and  _160
REMARK   60  A    between atoms: _159  and  _162
REMARK   61  A    between atoms: _162  and  _163
REMARK   62  A    between atoms: _163  and  _164
REMARK   63  A    between atoms: _164  and  _165
REMARK   64  A    between atoms: _174  and  _176
REMARK   65  A    between atoms: _176  and  _177
REMARK   66  A    between atoms: _176  and  _179
REMARK   67  A    between atoms: _179  and  _180
REMARK   68  A    between atoms: _185  and  _187
REMARK   69  A    between atoms: _187  and  _188
REMARK   70  A    between atoms: _191  and  _193
REMARK   71  A    between atoms: _193  and  _194
REMARK   72  A    between atoms: _197  and  _199
REMARK   73  A    between atoms: _199  and  _200
REMARK   74  A    between atoms: _203  and  _205
REMARK   75  A    between atoms: _205  and  _206
REMARK   76  A    between atoms: _205  and  _208
REMARK   77  A    between atoms: _208  and  _209
REMARK   78  A    between atoms: _209  and  _210
REMARK   79  A    between atoms: _210  and  _211
REMARK   80  A    between atoms: _220  and  _222
REMARK   81  A    between atoms: _222  and  _223
REMARK   82  A    between atoms: _222  and  _225
REMARK   83  A    between atoms: _225  and  _226
REMARK   84  A    between atoms: _226  and  _227
REMARK   85  A    between atoms: _227  and  _228
REMARK   86  A    between atoms: _237  and  _239
REMARK   87  A    between atoms: _239  and  _240
REMARK   88  A    between atoms: _239  and  _242
REMARK   89  A    between atoms: _242  and  _243
REMARK   90  A    between atoms: _246  and  _248
REMARK   91  A    between atoms: _248  and  _249
REMARK   92  A    between atoms: _251  and  _253
REMARK   93  A    between atoms: _253  and  _254
REMARK   94  A    between atoms: _253  and  _256
REMARK   95  A    between atoms: _256  and  _257
REMARK                            x       y       z     vdW  Elec       q    Type
REMARK                         _______ _______ _______ _____ _____    ______ ____
ROOT
ATOM      1  CA  ASN A   3     -23.857 -30.542  13.990  0.00  0.00    +0.158 C 
ENDROOT
BRANCH   1   2
ATOM      2  C   ASN A   3     -25.169 -30.243  14.736  0.00  0.00    +0.241 C 
ATOM      3  N   ARG A   4     -25.752 -31.268  15.359  0.00  0.00    -0.298 N 
ATOM      4  H   ARG A   4     -25.448 -32.238  15.141  0.00  0.00    +0.150 HD
ATOM      5  O   ASN A   3     -25.664 -29.101  14.711  0.00  0.00    -0.273 OA
BRANCH   3   6
ATOM      6  CA  ARG A   4     -26.819 -31.050  16.350  0.00  0.00    +0.137 C 
BRANCH   6   7
ATOM      7  C   ARG A   4     -26.161 -30.506  17.594  0.00  0.00    +0.227 C 
ATOM      8  O   ARG A   4     -25.173 -31.093  18.054  0.00  0.00    -0.286 OA
ENDBRANCH   6   7
BRANCH   6   9
ATOM      9  CB  ARG A   4     -27.478 -32.362  16.749  0.00  0.00    +0.031 C 
BRANCH   9  10
ATOM     10  CG  ARG A   4     -27.837 -33.293  15.644  0.00  0.00    +0.045 C 
BRANCH  10  11
ATOM     11  CD  ARG A   4     -28.432 -34.525  16.246  0.00  0.00    +0.174 C 
BRANCH  11  12
ATOM     12  NE  ARG A   4     -28.214 -35.678  15.384  0.00  0.00    -0.265 N 
ATOM     13  HE  ARG A   4     -27.276 -36.126  15.389  0.00  0.00    +0.259 HD
ATOM     14  CZ  ARG A   4     -29.145 -36.185  14.596  0.00  0.00    +0.342 C 
ATOM     15  NH2 ARG A   4     -30.345 -35.631  14.600  0.00  0.00    -0.292 N 
ATOM     16 HH21 ARG A   4     -30.539 -34.815  15.214  0.00  0.00    +0.255 HD
ATOM     17 HH22 ARG A   4     -31.095 -36.011  13.989  0.00  0.00    +0.255 HD
ATOM     18  NH1 ARG A   4     -28.883 -37.231  13.819  0.00  0.00    -0.292 N 
ATOM     19 HH11 ARG A   4     -27.936 -37.660  13.827  0.00  0.00    +0.255 HD
ATOM     20 HH12 ARG A   4     -29.625 -37.620  13.203  0.00  0.00    +0.255 HD
ENDBRANCH  11  12
ENDBRANCH  10  11
ENDBRANCH   9  10
ENDBRANCH   6   9
ENDBRANCH   3   6
ENDBRANCH   1   2
BRANCH   1  22
ATOM     21  C   GLY A   2     -23.181 -29.675  11.787  0.00  0.00    +0.243 C 
ATOM     22  N   ASN A   3     -23.619 -29.466  13.022  0.00  0.00    -0.297 N 
ATOM     23  H   ASN A   3     -23.803 -28.487  13.320  0.00  0.00    +0.150 HD
ATOM     24  O   GLY A   2     -22.964 -30.803  11.329  0.00  0.00    -0.273 OA
BRANCH  21  25
ATOM     25  CA  GLY A   2     -22.971 -28.412  10.967  0.00  0.00    +0.176 C 
BRANCH  25  27
ATOM     26  C   HIS A   1     -22.340 -27.571   8.791  0.00  0.00    +0.239 C 
ATOM     27  N   GLY A   2     -22.566 -28.613   9.574  0.00  0.00    -0.296 N 
ATOM     28  H   GLY A   2     -22.456 -29.577   9.200  0.00  0.00    +0.150 HD
ATOM     29  O   HIS A   1     -22.479 -26.417   9.181  0.00  0.00    -0.274 OA
BRANCH  26  30
ATOM     30  CA  HIS A   1     -21.876 -27.842   7.354  0.00  0.00    +0.151 C 
BRANCH  30  31
ATOM     31  N   HIS A   1     -22.668 -26.940   6.564  0.00  0.00    -0.238 NA
ATOM     32  H   HIS A   1     -22.943 -26.029   6.983  0.00  0.00    +0.142 HD
ENDBRANCH  30  31
BRANCH  30  33
ATOM     33  CB  HIS A   1     -20.427 -27.400   7.128  0.00  0.00    +0.074 C 
BRANCH  33  34
ATOM     34  CG  HIS A   1     -19.439 -28.020   8.050  0.00  0.00    +0.082 A 
ATOM     35  ND1 HIS A   1     -18.448 -27.285   8.658  0.00  0.00    -0.227 NA
ATOM     36  CE1 HIS A   1     -17.707 -28.088   9.397  0.00  0.00    +0.199 A 
ATOM     37  NE2 HIS A   1     -18.184 -29.315   9.289  0.00  0.00    -0.221 NA
ATOM     38  CD2 HIS A   1     -19.267 -29.300   8.445  0.00  0.00    +0.115 A 
ENDBRANCH  33  34
ENDBRANCH  30  33
ENDBRANCH  26  30
ENDBRANCH  25  27
ENDBRANCH  21  25
ENDBRANCH   1  22
BRANCH   1  39
ATOM     39  CB  ASN A   3     -22.672 -30.600  14.962  0.00  0.00    +0.114 C 
BRANCH  39  40
ATOM     40  CG  ASN A   3     -22.568 -31.926  15.711  0.00  0.00    +0.222 C 
ATOM     41  ND2 ASN A   3     -21.493 -32.066  16.467  0.00  0.00    -0.329 N 
ATOM     42 HD21 ASN A   3     -21.354 -32.938  17.017  0.00  0.00    +0.145 HD
ATOM     43 HD22 ASN A   3     -20.786 -31.304  16.512  0.00  0.00    +0.145 HD
ATOM     44  OD1 ASN A   3     -23.433 -32.805  15.628  0.00  0.00    -0.275 OA
ENDBRANCH  39  40
ENDBRANCH   1  39
TORSDOF 16
REMARK  Name = ../refined-set-2016/4n8q/4n8q_pocket.pdb
REMARK  95 active torsions:
REMARK  status: ('A' for Active; 'I' for Inactive)
REMARK    1  A    between atoms: _1  and  _3
REMARK    2  A    between atoms: _3  and  _4
REMARK    3  A    between atoms: _3  and  _6
REMARK    4  A    between atoms: _6  and  _7
REMARK    5  A    between atoms: _7  and  _8
REMARK    6  A    between atoms: _10  and  _12
REMARK    7  A    between atoms: _12  and  _13
REMARK    8  A    between atoms: _12  and  _15
REMARK    9  A    between atoms: _15  and  _16
REMARK   10  A    between atoms: _16  and  _17
REMARK   11  A    between atoms: _19  and  _21
REMARK   12  A    between atoms: _21  and  _22
REMARK   13  A    between atoms: _21  and  _24
REMARK   14  A    between atoms: _24  and  _25
REMARK   15  A    between atoms: _30  and  _32
REMARK   16  A    between atoms: _32  and  _33
REMARK   17  A    between atoms: _35  and  _37
REMARK   18  A    between atoms: _37  and  _38
REMARK   19  A    between atoms: _37  and  _40
REMARK   20  A    between atoms: _40  and  _41
REMARK   21  A    between atoms: _46  and  _48
REMARK   22  A    between atoms: _48  and  _49
REMARK   23  A    between atoms: _48  and  _51
REMARK   24  A    between atoms: _51  and  _52
REMARK   25  A    between atoms: _52  and  _53
REMARK   26  A    between atoms: _53  and  _54
REMARK   27  A    between atoms: _63  and  _65
REMARK   28  A    between atoms: _65  and  _66
REMARK   29  A    between atoms: _65  and  _68
REMARK   30  A    between atoms: _68  and  _69
REMARK   31  A    between atoms: _75  and  _77
REMARK   32  A    between atoms: _77  and  _78
REMARK   33  A    between atoms: _82  and  _83
REMARK   34  A    between atoms: _88  and  _90
REMARK   35  A    between atoms: _90  and  _91
REMARK   36  A    between atoms: _90  and  _93
REMARK   37  A    between atoms: _93  and  _94
REMARK   38  A    between atoms: _94  and  _95
REMARK   39  A    between atoms: _95  and  _96
REMARK   40  A    between atoms: _105  and  _107
REMARK   41  A    between atoms: _107  and  _108
REMARK   42  A    between atoms: _107  and  _110
REMARK   43  A    between atoms: _110  and  _111
REMARK   44  A    between atoms: _117  and  _119
REMARK   45  A    between atoms: _119  and  _120
REMARK   46  A    between atoms: _119  and  _122
REMARK   47  A    between atoms: _122  and  _123
REMARK   48  A    between atoms: _129  and  _130
REMARK   49  A    between atoms: _135  and  _137
REMARK   50  A    between atoms: _137  and  _138
REMARK   51  A    between atoms: _137  and  _140
REMARK   52  A    between atoms: _140  and  _141
REMARK   53  A    between atoms: _143  and  _145
REMARK   54  A    between atoms: _145  and  _146
REMARK   55  A    between atoms: _145  and  _148
REMARK   56  A    between atoms: _148  and  _149
REMARK   57  A    between atoms: _154  and  _155
REMARK   58  A    between atoms: _157  and  _159
REMARK   59  A    between atoms: _159  and  _160
REMARK   60  A    between atoms: _159  and  _162
REMARK   61  A    between atoms: _162  and  _163
REMARK   62  A    between atoms: _163  and  _164
REMARK   63  A    between atoms: _164  and  _165
REMARK   64  A    between atoms: _174  and  _176
REMARK   65  A    between atoms: _176  and  _177
REMARK   66  A    between atoms: _176  and  _179
REMARK   67  A    between atoms: _179  and  _180
REMARK   68  A    between atoms: _185  and  _187
REMARK   69  A    between atoms: _187  and  _188
REMARK   70  A    between atoms: _191  and  _193
REMARK   71  A    between atoms: _193  and  _194
REMARK   72  A    between atoms: _197  and  _199
REMARK   73  A    between atoms: _199  and  _200
REMARK   74  A    between atoms: _203  and  _205
REMARK   75  A    between atoms: _205  and  _206
REMARK   76  A    between atoms: _205  and  _208
REMARK   77  A    between atoms: _208  and  _209
REMARK   78  A    between atoms: _209  and  _210
REMARK   79  A    between atoms: _210  and  _211
REMARK   80  A    between atoms: _220  and  _222
REMARK   81  A    between atoms: _222  and  _223
REMARK   82  A    between atoms: _222  and  _225
REMARK   83  A    between atoms: _225  and  _226
REMARK   84  A    between atoms: _226  and  _227
REMARK   85  A    between atoms: _227  and  _228
REMARK   86  A    between atoms: _237  and  _239
REMARK   87  A    between atoms: _239  and  _240
REMARK   88  A    between atoms: _239  and  _242
REMARK   89  A    between atoms: _242  and  _243
REMARK   90  A    between atoms: _246  and  _248
REMARK   91  A    between atoms: _248  and  _249
REMARK   92  A    between atoms: _251  and  _253
REMARK   93  A    between atoms: _253  and  _254
REMARK   94  A    between atoms: _253  and  _256
REMARK   95  A    between atoms: _256  and  _257
REMARK                            x       y       z     vdW  Elec       q    Type
REMARK                         _______ _______ _______ _____ _____    ______ ____
ROOT
ATOM      1  C   HIS A   6     -14.852 -36.196  11.693  0.00  0.00    +0.244 C 
ATOM      2  O   HIS A   6     -14.796 -35.794  12.857  0.00  0.00    -0.273 OA
ATOM      3  N   PRO A   7     -14.799 -37.515  11.357  0.00  0.00    -0.272 N 
ATOM      4  CA  PRO A   7     -14.845 -38.525  12.421  0.00  0.00    +0.152 C 
ATOM      5  CB  PRO A   7     -14.776 -39.872  11.658  0.00  0.00    +0.031 C 
ATOM      6  CG  PRO A   7     -14.127 -39.531  10.306  0.00  0.00    +0.024 C 
ATOM      7  CD  PRO A   7     -14.555 -38.100  10.019  0.00  0.00    +0.094 C 
ENDROOT
BRANCH   4   8
ATOM      8  C   PRO A   7     -13.666 -38.401  13.417  0.00  0.00    +0.241 C 
ATOM      9  O   PRO A   7     -13.817 -38.686  14.603  0.00  0.00    -0.273 OA
ATOM     10  N   SER A   8     -12.524 -37.922  12.952  0.00  0.00    -0.295 N 
ATOM     11  H   SER A   8     -12.472 -37.629  11.956  0.00  0.00    +0.150 HD
BRANCH  10  12
ATOM     12  CA  SER A   8     -11.315 -37.788  13.801  0.00  0.00    +0.178 C 
BRANCH  12  13
ATOM     13  C   SER A   8     -11.339 -36.623  14.764  0.00  0.00    +0.243 C 
ATOM     14  O   SER A   8     -10.492 -36.514  15.644  0.00  0.00    -0.273 OA
ATOM     15  N   TYR A   9     -12.320 -35.761  14.592  0.00  0.00    -0.297 N 
ATOM     16  H   TYR A   9     -12.952 -35.874  13.774  0.00  0.00    +0.150 HD
BRANCH  15  17
ATOM     17  CA  TYR A   9     -12.546 -34.659  15.508  0.00  0.00    +0.153 C 
BRANCH  17  18
ATOM     18  C   TYR A   9     -13.237 -35.081  16.819  0.00  0.00    +0.241 C 
ATOM     19  O   TYR A   9     -13.360 -34.273  17.729  0.00  0.00    -0.273 OA
ATOM     20  N   ARG A  10     -13.651 -36.347  16.911  0.00  0.00    -0.297 N 
ATOM     21  H   ARG A  10     -13.404 -37.013  16.152  0.00  0.00    +0.150 HD
BRANCH  20  22
ATOM     22  CA  ARG A  10     -14.438 -36.826  18.040  0.00  0.00    +0.149 C 
BRANCH  22  23
ATOM     23  C   ARG A  10     -13.781 -36.595  19.417  0.00  0.00    +0.241 C 
ATOM     24  O   ARG A  10     -14.500 -36.336  20.370  0.00  0.00    -0.273 OA
ATOM     25  N   HIS A  11     -12.444 -36.652  19.521  0.00  0.00    -0.297 N 
ATOM     26  H   HIS A  11     -11.867 -36.864  18.682  0.00  0.00    +0.150 HD
BRANCH  25  27
ATOM     27  CA  HIS A  11     -11.789 -36.414  20.823  0.00  0.00    +0.155 C 
BRANCH  27  28
ATOM     28  C   HIS A  11     -11.899 -34.959  21.260  0.00  0.00    +0.241 C 
ATOM     29  O   HIS A  11     -12.134 -34.683  22.419  0.00  0.00    -0.273 OA
ATOM     30  N   ALA A  12     -11.752 -34.041  20.322  0.00  0.00    -0.297 N 
ATOM     31  H   ALA A  12     -11.477 -34.336  19.363  0.00  0.00    +0.150 HD
BRANCH  30  32
ATOM     32  CA  ALA A  12     -11.965 -32.622  20.595  0.00  0.00    +0.149 C 
ATOM     33  CB  ALA A  12     -11.469 -31.757  19.431  0.00  0.00    +0.031 C 
BRANCH  32  34
ATOM     34  C   ALA A  12     -13.442 -32.307  20.900  0.00  0.00    +0.241 C 
ATOM     35  O   ALA A  12     -13.734 -31.502  21.774  0.00  0.00    -0.273 OA
ATOM     36  N   ALA A  13     -14.369 -32.932  20.170  0.00  0.00    -0.297 N 
ATOM     37  H   ALA A  13     -14.083 -33.607  19.432  0.00  0.00    +0.150 HD
BRANCH  36  38
ATOM     38  CA  ALA A  13     -15.783 -32.668  20.408  0.00  0.00    +0.149 C 
ATOM     39  CB  ALA A  13     -16.654 -33.384  19.372  0.00  0.00    +0.031 C 
BRANCH  38  40
ATOM     40  C   ALA A  13     -16.158 -33.076  21.833  0.00  0.00    +0.241 C 
ATOM     41  O   ALA A  13     -16.845 -32.343  22.508  0.00  0.00    -0.273 OA
ATOM     42  N   ALA A  14     -15.673 -34.228  22.295  0.00  0.00    -0.298 N 
ATOM     43  H   ALA A  14     -15.088 -34.818  21.670  0.00  0.00    +0.150 HD
BRANCH  42  44
ATOM     44  CA  ALA A  14     -15.943 -34.687  23.665  0.00  0.00    +0.137 C 
ATOM     45  CB  ALA A  14     -15.402 -36.110  23.904  0.00  0.00    +0.030 C 
BRANCH  44  46
ATOM     46  C   ALA A  14     -15.403 -33.730  24.712  0.00  0.00    +0.227 C 
ATOM     47  O   ALA A  14     -16.075 -33.449  25.699  0.00  0.00    -0.286 OA
ENDBRANCH  44  46
ENDBRANCH  42  44
ENDBRANCH  38  40
ENDBRANCH  36  38
ENDBRANCH  32  34
ENDBRANCH  30  32
ENDBRANCH  27  28
BRANCH  27  48
ATOM     48  CB  HIS A  11     -10.325 -36.864  20.818  0.00  0.00    +0.076 C 
BRANCH  48  49
ATOM     49  CG  HIS A  11     -10.124 -38.206  20.186  0.00  0.00    +0.082 A 
ATOM     50  CD2 HIS A  11     -10.077 -39.446  20.718  0.00  0.00    +0.115 A 
ATOM     51  NE2 HIS A  11      -9.886 -40.326  19.678  0.00  0.00    -0.221 NA
ATOM     52  CE1 HIS A  11      -9.823 -39.649  18.546  0.00  0.00    +0.199 A 
ATOM     53  ND1 HIS A  11      -9.971 -38.364  18.826  0.00  0.00    -0.227 NA
ENDBRANCH  48  49
ENDBRANCH  27  48
ENDBRANCH  25  27
ENDBRANCH  22  23
BRANCH  22  54
ATOM     54  CB  ARG A  10     -14.826 -38.294  17.851  0.00  0.00    +0.033 C 
BRANCH  54  55
ATOM     55  CG  ARG A  10     -13.694 -39.319  18.016  0.00  0.00    +0.045 C 
BRANCH  55  56
ATOM     56  CD  ARG A  10     -14.156 -40.688  17.505  0.00  0.00    +0.174 C 
BRANCH  56  57
ATOM     57  NE  ARG A  10     -13.104 -41.692  17.575  0.00  0.00    -0.265 N 
ATOM     58  HE  ARG A  10     -13.053 -42.267  18.440  0.00  0.00    +0.259 HD
ATOM     59  CZ  ARG A  10     -12.198 -41.938  16.624  0.00  0.00    +0.342 C 
ATOM     60  NH2 ARG A  10     -11.291 -42.891  16.826  0.00  0.00    -0.292 N 
ATOM     61 HH21 ARG A  10     -11.294 -43.432  17.714  0.00  0.00    +0.255 HD
ATOM     62 HH22 ARG A  10     -10.579 -43.095  16.096  0.00  0.00    +0.255 HD
ATOM     63  NH1 ARG A  10     -12.172 -41.245  15.475  0.00  0.00    -0.292 N 
ATOM     64 HH11 ARG A  10     -12.870 -40.493  15.306  0.00  0.00    +0.255 HD
ATOM     65 HH12 ARG A  10     -11.454 -41.460  14.754  0.00  0.00    +0.255 HD
ENDBRANCH  56  57
ENDBRANCH  55  56
ENDBRANCH  54  55
ENDBRANCH  22  54
ENDBRANCH  20  22
ENDBRANCH  17  18
BRANCH  17  66
ATOM     66  CB  TYR A   9     -13.380 -33.609  14.810  0.00  0.00    +0.055 C 
BRANCH  66  67
ATOM     67  CG  TYR A   9     -13.451 -32.278  15.529  0.00  0.00    -0.020 A 
ATOM     68  CD2 TYR A   9     -14.629 -31.885  16.188  0.00  0.00    -0.001 A 
ATOM     69  CE2 TYR A   9     -14.718 -30.632  16.846  0.00  0.00    +0.036 A 
ATOM     70  CZ  TYR A   9     -13.631 -29.792  16.844  0.00  0.00    +0.134 A 
ATOM     71  CE1 TYR A   9     -12.431 -30.153  16.194  0.00  0.00    +0.036 A 
ATOM     72  CD1 TYR A   9     -12.348 -31.402  15.541  0.00  0.00    -0.001 A 
BRANCH  70  73
ATOM     73  OH  TYR A   9     -13.745 -28.577  17.475  0.00  0.00    -0.506 OA
ATOM     74  HH  TYR A   9     -12.891 -28.083  17.393  0.00  0.00    +0.292 HD
ENDBRANCH  70  73
ENDBRANCH  66  67
ENDBRANCH  17  66
ENDBRANCH  15  17
ENDBRANCH  12  13
BRANCH  12  75
ATOM     75  CB  SER A   8     -10.094 -37.710  12.909  0.00  0.00    +0.166 C 
BRANCH  75  76
ATOM     76  OG  SER A   8     -10.004 -38.957  12.235  0.00  0.00    -0.380 OA
ATOM     77  H   SER A   8      -9.910 -39.684  12.900  0.00  0.00    +0.211 HD
ENDBRANCH  75  76
ENDBRANCH  12  75
ENDBRANCH  10  12
ENDBRANCH   4   8
BRANCH   1  78
ATOM     78  CA  HIS A   6     -14.926 -35.174  10.566  0.00  0.00    +0.155 C 
BRANCH  78  80
ATOM     79  C   PHE A   5     -15.957 -35.629   8.375  0.00  0.00    +0.241 C 
ATOM     80  N   HIS A   6     -16.044 -35.483   9.694  0.00  0.00    -0.297 N 
ATOM     81  H   HIS A   6     -16.980 -35.599  10.132  0.00  0.00    +0.150 HD
ATOM     82  O   PHE A   5     -14.902 -35.666   7.752  0.00  0.00    -0.273 OA
BRANCH  79  83
ATOM     83  CA  PHE A   5     -17.281 -35.799   7.644  0.00  0.00    +0.153 C 
BRANCH  83  85
ATOM     84  C   ARG A   4     -18.697 -37.454   8.708  0.00  0.00    +0.241 C 
ATOM     85  N   PHE A   5     -18.411 -36.176   8.469  0.00  0.00    -0.297 N 
ATOM     86  H   PHE A   5     -19.010 -35.434   8.883  0.00  0.00    +0.150 HD
ATOM     87  O   ARG A   4     -17.985 -38.348   8.308  0.00  0.00    -0.273 OA
BRANCH  84  88
ATOM     88  CA  ARG A   4     -19.974 -37.784   9.516  0.00  0.00    +0.149 C 
BRANCH  88  91
ATOM     89  C   PRO A   3     -19.477 -37.022  11.768  0.00  0.00    +0.241 C 
ATOM     90  O   PRO A   3     -18.630 -37.915  11.910  0.00  0.00    -0.273 OA
ATOM     91  N   ARG A   4     -20.212 -36.893  10.656  0.00  0.00    -0.297 N 
ATOM     92  H   ARG A   4     -20.950 -36.162  10.601  0.00  0.00    +0.150 HD
BRANCH  89  98
ATOM     93  C   ALA A   2     -19.425 -34.079  11.501  0.00  0.00    +0.244 C 
ATOM     94  N   PRO A   3     -20.211 -34.736  12.386  0.00  0.00    -0.272 N 
ATOM     95  CD  PRO A   3     -21.430 -34.323  13.104  0.00  0.00    +0.094 C 
ATOM     96  CG  PRO A   3     -21.424 -35.231  14.335  0.00  0.00    +0.024 C 
ATOM     97  CB  PRO A   3     -20.812 -36.503  13.822  0.00  0.00    +0.031 C 
ATOM     98  CA  PRO A   3     -19.697 -36.019  12.885  0.00  0.00    +0.152 C 
ATOM     99  O   ALA A   2     -18.341 -34.531  11.139  0.00  0.00    -0.273 OA
BRANCH  93 100
ATOM    100  CA  ALA A   2     -19.933 -32.770  10.907  0.00  0.00    +0.149 C 
ATOM    101  CB  ALA A   2     -19.711 -31.590  11.884  0.00  0.00    +0.031 C 
BRANCH 100 103
ATOM    102  C   PHE A   1     -21.787 -33.667   9.528  0.00  0.00    +0.239 C 
ATOM    103  N   ALA A   2     -21.329 -32.764  10.387  0.00  0.00    -0.297 N 
ATOM    104  H   ALA A   2     -21.976 -32.017  10.712  0.00  0.00    +0.150 HD
ATOM    105  O   PHE A   1     -21.154 -34.652   9.196  0.00  0.00    -0.274 OA
BRANCH 102 106
ATOM    106  CA  PHE A   1     -23.158 -33.399   8.914  0.00  0.00    +0.149 C 
BRANCH 106 107
ATOM    107  N   PHE A   1     -22.966 -33.199   7.483  0.00  0.00    -0.238 NA
ATOM    108  H   PHE A   1     -23.155 -33.988   6.832  0.00  0.00    +0.142 HD
ENDBRANCH 106 107
BRANCH 106 109
ATOM    109  CB  PHE A   1     -24.120 -34.582   9.177  0.00  0.00    +0.053 C 
BRANCH 109 110
ATOM    110  CG  PHE A   1     -24.452 -34.805  10.654  0.00  0.00    -0.020 A 
ATOM    111  CD2 PHE A   1     -24.866 -33.748  11.463  0.00  0.00    -0.004 A 
ATOM    112  CE2 PHE A   1     -25.179 -33.944  12.816  0.00  0.00    -0.000 A 
ATOM    113  CZ  PHE A   1     -25.071 -35.226  13.377  0.00  0.00    -0.000 A 
ATOM    114  CE1 PHE A   1     -24.666 -36.299  12.568  0.00  0.00    -0.000 A 
ATOM    115  CD1 PHE A   1     -24.361 -36.076  11.211  0.00  0.00    -0.004 A 
ENDBRANCH 109 110
ENDBRANCH 106 109
ENDBRANCH 102 106
ENDBRANCH 100 103
ENDBRANCH  93 100
ENDBRANCH  89  98
ENDBRANCH  88  91
BRANCH  88 116
ATOM    116  CB  ARG A   4     -21.210 -37.831   8.587  0.00  0.00    +0.033 C 
BRANCH 116 117
ATOM    117  CG  ARG A   4     -20.918 -38.422   7.202  0.00  0.00    +0.045 C 
BRANCH 117 118
ATOM    118  CD  ARG A   4     -20.888 -39.930   7.254  0.00  0.00    +0.174 C 
BRANCH 118 119
ATOM    119  NE  ARG A   4     -22.247 -40.410   7.435  0.00  0.00    -0.265 N 
ATOM    120  HE  ARG A   4     -22.786 -40.025   8.237  0.00  0.00    +0.259 HD
ATOM    121  CZ  ARG A   4     -22.860 -41.302   6.659  0.00  0.00    +0.342 C 
ATOM    122  NH2 ARG A   4     -24.107 -41.650   6.932  0.00  0.00    -0.292 N 
ATOM    123 HH21 ARG A   4     -24.598 -41.228   7.746  0.00  0.00    +0.255 HD
ATOM    124 HH22 ARG A   4     -24.596 -42.346   6.333  0.00  0.00    +0.255 HD
ATOM    125  NH1 ARG A   4     -22.231 -41.861   5.627  0.00  0.00    -0.292 N 
ATOM    126 HH11 ARG A   4     -21.246 -41.603   5.417  0.00  0.00    +0.255 HD
ATOM    127 HH12 ARG A   4     -22.725 -42.556   5.031  0.00  0.00    +0.255 HD
ENDBRANCH 118 119
ENDBRANCH 117 118
ENDBRANCH 116 117
ENDBRANCH  88 116
ENDBRANCH  84  88
ENDBRANCH  83  85
BRANCH  83 128
ATOM    128  CB  PHE A   5     -17.621 -34.541   6.842  0.00  0.00    +0.055 C 
BRANCH 128 129
ATOM    129  CG  PHE A   5     -18.550 -34.822   5.712  0.00  0.00    -0.020 A 
ATOM    130  CD2 PHE A   5     -19.906 -35.024   5.952  0.00  0.00    -0.004 A 
ATOM    131  CE2 PHE A   5     -20.764 -35.338   4.920  0.00  0.00    -0.000 A 
ATOM    132  CZ  PHE A   5     -20.250 -35.450   3.625  0.00  0.00    -0.000 A 
ATOM    133  CE1 PHE A   5     -18.889 -35.275   3.389  0.00  0.00    -0.000 A 
ATOM    134  CD1 PHE A   5     -18.057 -34.968   4.422  0.00  0.00    -0.004 A 
ENDBRANCH 128 129
ENDBRANCH  83 128
ENDBRANCH  79  83
ENDBRANCH  78  80
BRANCH  78 135
ATOM    135  CB  HIS A   6     -15.127 -33.783  11.179  0.00  0.00    +0.076 C 
BRANCH 135 136
ATOM    136  CG  HIS A   6     -14.960 -32.667  10.201  0.00  0.00    +0.082 A 
ATOM    137  ND1 HIS A   6     -15.974 -31.782   9.898  0.00  0.00    -0.227 NA
ATOM    138  CE1 HIS A   6     -15.546 -30.919   8.992  0.00  0.00    +0.199 A 
ATOM    139  NE2 HIS A   6     -14.291 -31.213   8.700  0.00  0.00    -0.221 NA
ATOM    140  CD2 HIS A   6     -13.903 -32.303   9.438  0.00  0.00    +0.115 A 
ENDBRANCH 135 136
ENDBRANCH  78 135
ENDBRANCH   1  78
TORSDOF 47
REMARK  Name = ../refined-set-2016/4n8q/4n8q_pocket.pdb
REMARK  95 active torsions:
REMARK  status: ('A' for Active; 'I' for Inactive)
REMARK    1  A    between atoms: _1  and  _3
REMARK    2  A    between atoms: _3  and  _4
REMARK    3  A    between atoms: _3  and  _6
REMARK    4  A    between atoms: _6  and  _7
REMARK    5  A    between atoms: _7  and  _8
REMARK    6  A    between atoms: _10  and  _12
REMARK    7  A    between atoms: _12  and  _13
REMARK    8  A    between atoms: _12  and  _15
REMARK    9  A    between atoms: _15  and  _16
REMARK   10  A    between atoms: _16  and  _17
REMARK   11  A    between atoms: _19  and  _21
REMARK   12  A    between atoms: _21  and  _22
REMARK   13  A    between atoms: _21  and  _24
REMARK   14  A    between atoms: _24  and  _25
REMARK   15  A    between atoms: _30  and  _32
REMARK   16  A    between atoms: _32  and  _33
REMARK   17  A    between atoms: _35  and  _37
REMARK   18  A    between atoms: _37  and  _38
REMARK   19  A    between atoms: _37  and  _40
REMARK   20  A    between atoms: _40  and  _41
REMARK   21  A    between atoms: _46  and  _48
REMARK   22  A    between atoms: _48  and  _49
REMARK   23  A    between atoms: _48  and  _51
REMARK   24  A    between atoms: _51  and  _52
REMARK   25  A    between atoms: _52  and  _53
REMARK   26  A    between atoms: _53  and  _54
REMARK   27  A    between atoms: _63  and  _65
REMARK   28  A    between atoms: _65  and  _66
REMARK   29  A    between atoms: _65  and  _68
REMARK   30  A    between atoms: _68  and  _69
REMARK   31  A    between atoms: _75  and  _77
REMARK   32  A    between atoms: _77  and  _78
REMARK   33  A    between atoms: _82  and  _83
REMARK   34  A    between atoms: _88  and  _90
REMARK   35  A    between atoms: _90  and  _91
REMARK   36  A    between atoms: _90  and  _93
REMARK   37  A    between atoms: _93  and  _94
REMARK   38  A    between atoms: _94  and  _95
REMARK   39  A    between atoms: _95  and  _96
REMARK   40  A    between atoms: _105  and  _107
REMARK   41  A    between atoms: _107  and  _108
REMARK   42  A    between atoms: _107  and  _110
REMARK   43  A    between atoms: _110  and  _111
REMARK   44  A    between atoms: _117  and  _119
REMARK   45  A    between atoms: _119  and  _120
REMARK   46  A    between atoms: _119  and  _122
REMARK   47  A    between atoms: _122  and  _123
REMARK   48  A    between atoms: _129  and  _130
REMARK   49  A    between atoms: _135  and  _137
REMARK   50  A    between atoms: _137  and  _138
REMARK   51  A    between atoms: _137  and  _140
REMARK   52  A    between atoms: _140  and  _141
REMARK   53  A    between atoms: _143  and  _145
REMARK   54  A    between atoms: _145  and  _146
REMARK   55  A    between atoms: _145  and  _148
REMARK   56  A    between atoms: _148  and  _149
REMARK   57  A    between atoms: _154  and  _155
REMARK   58  A    between atoms: _157  and  _159
REMARK   59  A    between atoms: _159  and  _160
REMARK   60  A    between atoms: _159  and  _162
REMARK   61  A    between atoms: _162  and  _163
REMARK   62  A    between atoms: _163  and  _164
REMARK   63  A    between atoms: _164  and  _165
REMARK   64  A    between atoms: _174  and  _176
REMARK   65  A    between atoms: _176  and  _177
REMARK   66  A    between atoms: _176  and  _179
REMARK   67  A    between atoms: _179  and  _180
REMARK   68  A    between atoms: _185  and  _187
REMARK   69  A    between atoms: _187  and  _188
REMARK   70  A    between atoms: _191  and  _193
REMARK   71  A    between atoms: _193  and  _194
REMARK   72  A    between atoms: _197  and  _199
REMARK   73  A    between atoms: _199  and  _200
REMARK   74  A    between atoms: _203  and  _205
REMARK   75  A    between atoms: _205  and  _206
REMARK   76  A    between atoms: _205  and  _208
REMARK   77  A    between atoms: _208  and  _209
REMARK   78  A    between atoms: _209  and  _210
REMARK   79  A    between atoms: _210  and  _211
REMARK   80  A    between atoms: _220  and  _222
REMARK   81  A    between atoms: _222  and  _223
REMARK   82  A    between atoms: _222  and  _225
REMARK   83  A    between atoms: _225  and  _226
REMARK   84  A    between atoms: _226  and  _227
REMARK   85  A    between atoms: _227  and  _228
REMARK   86  A    between atoms: _237  and  _239
REMARK   87  A    between atoms: _239  and  _240
REMARK   88  A    between atoms: _239  and  _242
REMARK   89  A    between atoms: _242  and  _243
REMARK   90  A    between atoms: _246  and  _248
REMARK   91  A    between atoms: _248  and  _249
REMARK   92  A    between atoms: _251  and  _253
REMARK   93  A    between atoms: _253  and  _254
REMARK   94  A    between atoms: _253  and  _256
REMARK   95  A    between atoms: _256  and  _257
REMARK                            x       y       z     vdW  Elec       q    Type
REMARK                         _______ _______ _______ _____ _____    ______ ____
ROOT
ATOM      1  C   ARG A   1     -16.978 -29.312  24.817  0.00  0.00    +0.238 C 
ATOM      2  O   ARG A   1     -17.418 -28.347  25.455  0.00  0.00    -0.274 OA
ATOM      3  N   ARG A   2     -17.567 -30.515  24.757  0.00  0.00    -0.298 N 
ATOM      4  H   ARG A   2     -17.156 -31.226  24.119  0.00  0.00    +0.150 HD
ENDROOT
BRANCH   1   5
ATOM      5  CA  ARG A   1     -15.657 -29.192  24.058  0.00  0.00    +0.145 C 
BRANCH   5   6
ATOM      6  N   ARG A   1     -14.866 -30.434  24.188  0.00  0.00    -0.238 NA
ATOM      7  H   ARG A   1     -14.559 -30.940  23.333  0.00  0.00    +0.142 HD
ENDBRANCH   5   6
BRANCH   5   8
ATOM      8  CB  ARG A   1     -15.914 -28.824  22.594  0.00  0.00    +0.030 C 
BRANCH   8   9
ATOM      9  CG  ARG A   1     -14.671 -28.316  21.823  0.00  0.00    +0.045 C 
BRANCH   9  10
ATOM     10  CD  ARG A   1     -15.040 -28.102  20.344  0.00  0.00    +0.174 C 
BRANCH  10  11
ATOM     11  NE  ARG A   1     -15.986 -26.993  20.208  0.00  0.00    -0.265 N 
ATOM     12  HE  ARG A   1     -16.126 -26.382  21.038  0.00  0.00    +0.259 HD
ATOM     13  CZ  ARG A   1     -16.686 -26.699  19.106  0.00  0.00    +0.342 C 
ATOM     14  NH2 ARG A   1     -17.527 -25.663  19.118  0.00  0.00    -0.292 N 
ATOM     15 HH21 ARG A   1     -17.635 -25.091  19.980  0.00  0.00    +0.255 HD
ATOM     16 HH22 ARG A   1     -18.075 -25.428  18.266  0.00  0.00    +0.255 HD
ATOM     17  NH1 ARG A   1     -16.560 -27.420  17.992  0.00  0.00    -0.292 N 
ATOM     18 HH11 ARG A   1     -15.907 -28.229  17.968  0.00  0.00    +0.255 HD
ATOM     19 HH12 ARG A   1     -17.114 -27.173  17.147  0.00  0.00    +0.255 HD
ENDBRANCH  10  11
ENDBRANCH   9  10
ENDBRANCH   8   9
ENDBRANCH   5   8
ENDBRANCH   1   5
BRANCH   3  20
ATOM     20  CA  ARG A   2     -18.740 -30.890  25.523  0.00  0.00    +0.137 C 
BRANCH  20  21
ATOM     21  C   ARG A   2     -18.475 -30.877  27.024  0.00  0.00    +0.227 C 
ATOM     22  O   ARG A   2     -19.247 -30.274  27.787  0.00  0.00    -0.286 OA
ENDBRANCH  20  21
BRANCH  20  23
ATOM     23  CB  ARG A   2     -19.224 -32.290  25.151  0.00  0.00    +0.031 C 
BRANCH  23  24
ATOM     24  CG  ARG A   2     -19.917 -32.401  23.806  0.00  0.00    +0.045 C 
BRANCH  24  25
ATOM     25  CD  ARG A   2     -20.681 -33.734  23.678  0.00  0.00    +0.174 C 
BRANCH  25  26
ATOM     26  NE  ARG A   2     -19.867 -34.964  23.650  0.00  0.00    -0.265 N 
ATOM     27  HE  ARG A   2     -19.595 -35.384  24.562  0.00  0.00    +0.259 HD
ATOM     28  CZ  ARG A   2     -19.454 -35.578  22.537  0.00  0.00    +0.342 C 
ATOM     29  NH2 ARG A   2     -18.743 -36.699  22.600  0.00  0.00    -0.292 N 
ATOM     30 HH21 ARG A   2     -18.501 -37.110  23.524  0.00  0.00    +0.255 HD
ATOM     31 HH22 ARG A   2     -18.429 -37.165  21.725  0.00  0.00    +0.255 HD
ATOM     32  NH1 ARG A   2     -19.733 -35.069  21.348  0.00  0.00    -0.292 N 
ATOM     33 HH11 ARG A   2     -20.277 -34.186  21.275  0.00  0.00    +0.255 HD
ATOM     34 HH12 ARG A   2     -19.408 -35.552  20.486  0.00  0.00    +0.255 HD
ENDBRANCH  25  26
ENDBRANCH  24  25
ENDBRANCH  23  24
ENDBRANCH  20  23
ENDBRANCH   3  20
TORSDOF 12
REMARK  Name = ../refined-set-2016/4n8q/4n8q_pocket.pdb
REMARK  95 active torsions:
REMARK  status: ('A' for Active; 'I' for Inactive)
REMARK    1  A    between atoms: _1  and  _3
REMARK    2  A    between atoms: _3  and  _4
REMARK    3  A    between atoms: _3  and  _6
REMARK    4  A    between atoms: _6  and  _7
REMARK    5  A    between atoms: _7  and  _8
REMARK    6  A    between atoms: _10  and  _12
REMARK    7  A    between atoms: _12  and  _13
REMARK    8  A    between atoms: _12  and  _15
REMARK    9  A    between atoms: _15  and  _16
REMARK   10  A    between atoms: _16  and  _17
REMARK   11  A    between atoms: _19  and  _21
REMARK   12  A    between atoms: _21  and  _22
REMARK   13  A    between atoms: _21  and  _24
REMARK   14  A    between atoms: _24  and  _25
REMARK   15  A    between atoms: _30  and  _32
REMARK   16  A    between atoms: _32  and  _33
REMARK   17  A    between atoms: _35  and  _37
REMARK   18  A    between atoms: _37  and  _38
REMARK   19  A    between atoms: _37  and  _40
REMARK   20  A    between atoms: _40  and  _41
REMARK   21  A    between atoms: _46  and  _48
REMARK   22  A    between atoms: _48  and  _49
REMARK   23  A    between atoms: _48  and  _51
REMARK   24  A    between atoms: _51  and  _52
REMARK   25  A    between atoms: _52  and  _53
REMARK   26  A    between atoms: _53  and  _54
REMARK   27  A    between atoms: _63  and  _65
REMARK   28  A    between atoms: _65  and  _66
REMARK   29  A    between atoms: _65  and  _68
REMARK   30  A    between atoms: _68  and  _69
REMARK   31  A    between atoms: _75  and  _77
REMARK   32  A    between atoms: _77  and  _78
REMARK   33  A    between atoms: _82  and  _83
REMARK   34  A    between atoms: _88  and  _90
REMARK   35  A    between atoms: _90  and  _91
REMARK   36  A    between atoms: _90  and  _93
REMARK   37  A    between atoms: _93  and  _94
REMARK   38  A    between atoms: _94  and  _95
REMARK   39  A    between atoms: _95  and  _96
REMARK   40  A    between atoms: _105  and  _107
REMARK   41  A    between atoms: _107  and  _108
REMARK   42  A    between atoms: _107  and  _110
REMARK   43  A    between atoms: _110  and  _111
REMARK   44  A    between atoms: _117  and  _119
REMARK   45  A    between atoms: _119  and  _120
REMARK   46  A    between atoms: _119  and  _122
REMARK   47  A    between atoms: _122  and  _123
REMARK   48  A    between atoms: _129  and  _130
REMARK   49  A    between atoms: _135  and  _137
REMARK   50  A    between atoms: _137  and  _138
REMARK   51  A    between atoms: _137  and  _140
REMARK   52  A    between atoms: _140  and  _141
REMARK   53  A    between atoms: _143  and  _145
REMARK   54  A    between atoms: _145  and  _146
REMARK   55  A    between atoms: _145  and  _148
REMARK   56  A    between atoms: _148  and  _149
REMARK   57  A    between atoms: _154  and  _155
REMARK   58  A    between atoms: _157  and  _159
REMARK   59  A    between atoms: _159  and  _160
REMARK   60  A    between atoms: _159  and  _162
REMARK   61  A    between atoms: _162  and  _163
REMARK   62  A    between atoms: _163  and  _164
REMARK   63  A    between atoms: _164  and  _165
REMARK   64  A    between atoms: _174  and  _176
REMARK   65  A    between atoms: _176  and  _177
REMARK   66  A    between atoms: _176  and  _179
REMARK   67  A    between atoms: _179  and  _180
REMARK   68  A    between atoms: _185  and  _187
REMARK   69  A    between atoms: _187  and  _188
REMARK   70  A    between atoms: _191  and  _193
REMARK   71  A    between atoms: _193  and  _194
REMARK   72  A    between atoms: _197  and  _199
REMARK   73  A    between atoms: _199  and  _200
REMARK   74  A    between atoms: _203  and  _205
REMARK   75  A    between atoms: _205  and  _206
REMARK   76  A    between atoms: _205  and  _208
REMARK   77  A    between atoms: _208  and  _209
REMARK   78  A    between atoms: _209  and  _210
REMARK   79  A    between atoms: _210  and  _211
REMARK   80  A    between atoms: _220  and  _222
REMARK   81  A    between atoms: _222  and  _223
REMARK   82  A    between atoms: _222  and  _225
REMARK   83  A    between atoms: _225  and  _226
REMARK   84  A    between atoms: _226  and  _227
REMARK   85  A    between atoms: _227  and  _228
REMARK   86  A    between atoms: _237  and  _239
REMARK   87  A    between atoms: _239  and  _240
REMARK   88  A    between atoms: _239  and  _242
REMARK   89  A    between atoms: _242  and  _243
REMARK   90  A    between atoms: _246  and  _248
REMARK   91  A    between atoms: _248  and  _249
REMARK   92  A    between atoms: _251  and  _253
REMARK   93  A    between atoms: _253  and  _254
REMARK   94  A    between atoms: _253  and  _256
REMARK   95  A    between atoms: _256  and  _257
REMARK                            x       y       z     vdW  Elec       q    Type
REMARK                         _______ _______ _______ _____ _____    ______ ____
ROOT
ATOM      1  CA  LEU A   1     -13.375 -23.823  12.993  0.00  0.00    +0.145 C 
ENDROOT
BRANCH   1   2
ATOM      2  C   LEU A   1     -14.470 -24.335  12.067  0.00  0.00    +0.238 C 
ATOM      3  N   GLY A   2     -15.709 -24.391  12.561  0.00  0.00    -0.297 N 
ATOM      4  H   GLY A   2     -15.855 -24.193  13.571  0.00  0.00    +0.150 HD
ATOM      5  O   LEU A   1     -14.178 -24.717  10.931  0.00  0.00    -0.274 OA
BRANCH   3   6
ATOM      6  CA  GLY A   2     -16.884 -24.725  11.722  0.00  0.00    +0.163 C 
BRANCH   6   7
ATOM      7  C   GLY A   2     -16.947 -24.135  10.324  0.00  0.00    +0.229 C 
ATOM      8  O   GLY A   2     -16.950 -24.875   9.346  0.00  0.00    -0.286 OA
ENDBRANCH   6   7
ENDBRANCH   3   6
ENDBRANCH   1   2
BRANCH   1   9
ATOM      9  N   LEU A   1     -13.838 -22.879  14.021  0.00  0.00    -0.238 NA
ATOM     10  H   LEU A   1     -14.039 -23.226  14.981  0.00  0.00    +0.142 HD
ENDBRANCH   1   9
BRANCH   1  11
ATOM     11  CB  LEU A   1     -12.625 -25.025  13.627  0.00  0.00    +0.026 C 
BRANCH  11  12
ATOM     12  CG  LEU A   1     -11.490 -24.656  14.577  0.00  0.00    +0.002 C 
ATOM     13  CD2 LEU A   1     -10.684 -25.881  14.942  0.00  0.00    +0.000 C 
ATOM     14  CD1 LEU A   1     -10.599 -23.569  13.977  0.00  0.00    +0.000 C 
ENDBRANCH  11  12
ENDBRANCH   1  11
TORSDOF 6
REMARK  Name = ../refined-set-2016/4n8q/4n8q_pocket.pdb
REMARK  95 active torsions:
REMARK  status: ('A' for Active; 'I' for Inactive)
REMARK    1  A    between atoms: _1  and  _3
REMARK    2  A    between atoms: _3  and  _4
REMARK    3  A    between atoms: _3  and  _6
REMARK    4  A    between atoms: _6  and  _7
REMARK    5  A    between atoms: _7  and  _8
REMARK    6  A    between atoms: _10  and  _12
REMARK    7  A    between atoms: _12  and  _13
REMARK    8  A    between atoms: _12  and  _15
REMARK    9  A    between atoms: _15  and  _16
REMARK   10  A    between atoms: _16  and  _17
REMARK   11  A    between atoms: _19  and  _21
REMARK   12  A    between atoms: _21  and  _22
REMARK   13  A    between atoms: _21  and  _24
REMARK   14  A    between atoms: _24  and  _25
REMARK   15  A    between atoms: _30  and  _32
REMARK   16  A    between atoms: _32  and  _33
REMARK   17  A    between atoms: _35  and  _37
REMARK   18  A    between atoms: _37  and  _38
REMARK   19  A    between atoms: _37  and  _40
REMARK   20  A    between atoms: _40  and  _41
REMARK   21  A    between atoms: _46  and  _48
REMARK   22  A    between atoms: _48  and  _49
REMARK   23  A    between atoms: _48  and  _51
REMARK   24  A    between atoms: _51  and  _52
REMARK   25  A    between atoms: _52  and  _53
REMARK   26  A    between atoms: _53  and  _54
REMARK   27  A    between atoms: _63  and  _65
REMARK   28  A    between atoms: _65  and  _66
REMARK   29  A    between atoms: _65  and  _68
REMARK   30  A    between atoms: _68  and  _69
REMARK   31  A    between atoms: _75  and  _77
REMARK   32  A    between atoms: _77  and  _78
REMARK   33  A    between atoms: _82  and  _83
REMARK   34  A    between atoms: _88  and  _90
REMARK   35  A    between atoms: _90  and  _91
REMARK   36  A    between atoms: _90  and  _93
REMARK   37  A    between atoms: _93  and  _94
REMARK   38  A    between atoms: _94  and  _95
REMARK   39  A    between atoms: _95  and  _96
REMARK   40  A    between atoms: _105  and  _107
REMARK   41  A    between atoms: _107  and  _108
REMARK   42  A    between atoms: _107  and  _110
REMARK   43  A    between atoms: _110  and  _111
REMARK   44  A    between atoms: _117  and  _119
REMARK   45  A    between atoms: _119  and  _120
REMARK   46  A    between atoms: _119  and  _122
REMARK   47  A    between atoms: _122  and  _123
REMARK   48  A    between atoms: _129  and  _130
REMARK   49  A    between atoms: _135  and  _137
REMARK   50  A    between atoms: _137  and  _138
REMARK   51  A    between atoms: _137  and  _140
REMARK   52  A    between atoms: _140  and  _141
REMARK   53  A    between atoms: _143  and  _145
REMARK   54  A    between atoms: _145  and  _146
REMARK   55  A    between atoms: _145  and  _148
REMARK   56  A    between atoms: _148  and  _149
REMARK   57  A    between atoms: _154  and  _155
REMARK   58  A    between atoms: _157  and  _159
REMARK   59  A    between atoms: _159  and  _160
REMARK   60  A    between atoms: _159  and  _162
REMARK   61  A    between atoms: _162  and  _163
REMARK   62  A    between atoms: _163  and  _164
REMARK   63  A    between atoms: _164  and  _165
REMARK   64  A    between atoms: _174  and  _176
REMARK   65  A    between atoms: _176  and  _177
REMARK   66  A    between atoms: _176  and  _179
REMARK   67  A    between atoms: _179  and  _180
REMARK   68  A    between atoms: _185  and  _187
REMARK   69  A    between atoms: _187  and  _188
REMARK   70  A    between atoms: _191  and  _193
REMARK   71  A    between atoms: _193  and  _194
REMARK   72  A    between atoms: _197  and  _199
REMARK   73  A    between atoms: _199  and  _200
REMARK   74  A    between atoms: _203  and  _205
REMARK   75  A    between atoms: _205  and  _206
REMARK   76  A    between atoms: _205  and  _208
REMARK   77  A    between atoms: _208  and  _209
REMARK   78  A    between atoms: _209  and  _210
REMARK   79  A    between atoms: _210  and  _211
REMARK   80  A    between atoms: _220  and  _222
REMARK   81  A    between atoms: _222  and  _223
REMARK   82  A    between atoms: _222  and  _225
REMARK   83  A    between atoms: _225  and  _226
REMARK   84  A    between atoms: _226  and  _227
REMARK   85  A    between atoms: _227  and  _228
REMARK   86  A    between atoms: _237  and  _239
REMARK   87  A    between atoms: _239  and  _240
REMARK   88  A    between atoms: _239  and  _242
REMARK   89  A    between atoms: _242  and  _243
REMARK   90  A    between atoms: _246  and  _248
REMARK   91  A    between atoms: _248  and  _249
REMARK   92  A    between atoms: _251  and  _253
REMARK   93  A    between atoms: _253  and  _254
REMARK   94  A    between atoms: _253  and  _256
REMARK   95  A    between atoms: _256  and  _257
REMARK                            x       y       z     vdW  Elec       q    Type
REMARK                         _______ _______ _______ _____ _____    ______ ____
ROOT
ATOM      1  CA  THR A   1     -13.577 -26.553   7.816  0.00  0.00    +0.160 C 
ENDROOT
BRANCH   1   2
ATOM      2  N   THR A   1     -13.866 -25.147   8.123  0.00  0.00    -0.237 NA
ATOM      3  H   THR A   1     -14.730 -24.887   8.641  0.00  0.00    +0.142 HD
ENDBRANCH   1   2
BRANCH   1   4
ATOM      4  CB  THR A   1     -13.213 -27.307   9.108  0.00  0.00    +0.134 C 
ATOM      5  CG2 THR A   1     -11.880 -26.713   9.720  0.00  0.00    +0.034 C 
BRANCH   4   6
ATOM      6  OG1 THR A   1     -14.266 -27.093  10.059  0.00  0.00    -0.383 OA
ATOM      7  HG1 THR A   1     -14.352 -26.124  10.241  0.00  0.00    +0.210 HD
ENDBRANCH   4   6
ENDBRANCH   1   4
BRANCH   1   8
ATOM      8  C   THR A   1     -14.766 -27.251   7.126  0.00  0.00    +0.227 C 
ATOM      9  O   THR A   1     -14.928 -28.455   7.246  0.00  0.00    -0.287 OA
ENDBRANCH   1   8
TORSDOF 4
REMARK  Name = ../refined-set-2016/4n8q/4n8q_pocket.pdb
REMARK  95 active torsions:
REMARK  status: ('A' for Active; 'I' for Inactive)
REMARK    1  A    between atoms: _1  and  _3
REMARK    2  A    between atoms: _3  and  _4
REMARK    3  A    between atoms: _3  and  _6
REMARK    4  A    between atoms: _6  and  _7
REMARK    5  A    between atoms: _7  and  _8
REMARK    6  A    between atoms: _10  and  _12
REMARK    7  A    between atoms: _12  and  _13
REMARK    8  A    between atoms: _12  and  _15
REMARK    9  A    between atoms: _15  and  _16
REMARK   10  A    between atoms: _16  and  _17
REMARK   11  A    between atoms: _19  and  _21
REMARK   12  A    between atoms: _21  and  _22
REMARK   13  A    between atoms: _21  and  _24
REMARK   14  A    between atoms: _24  and  _25
REMARK   15  A    between atoms: _30  and  _32
REMARK   16  A    between atoms: _32  and  _33
REMARK   17  A    between atoms: _35  and  _37
REMARK   18  A    between atoms: _37  and  _38
REMARK   19  A    between atoms: _37  and  _40
REMARK   20  A    between atoms: _40  and  _41
REMARK   21  A    between atoms: _46  and  _48
REMARK   22  A    between atoms: _48  and  _49
REMARK   23  A    between atoms: _48  and  _51
REMARK   24  A    between atoms: _51  and  _52
REMARK   25  A    between atoms: _52  and  _53
REMARK   26  A    between atoms: _53  and  _54
REMARK   27  A    between atoms: _63  and  _65
REMARK   28  A    between atoms: _65  and  _66
REMARK   29  A    between atoms: _65  and  _68
REMARK   30  A    between atoms: _68  and  _69
REMARK   31  A    between atoms: _75  and  _77
REMARK   32  A    between atoms: _77  and  _78
REMARK   33  A    between atoms: _82  and  _83
REMARK   34  A    between atoms: _88  and  _90
REMARK   35  A    between atoms: _90  and  _91
REMARK   36  A    between atoms: _90  and  _93
REMARK   37  A    between atoms: _93  and  _94
REMARK   38  A    between atoms: _94  and  _95
REMARK   39  A    between atoms: _95  and  _96
REMARK   40  A    between atoms: _105  and  _107
REMARK   41  A    between atoms: _107  and  _108
REMARK   42  A    between atoms: _107  and  _110
REMARK   43  A    between atoms: _110  and  _111
REMARK   44  A    between atoms: _117  and  _119
REMARK   45  A    between atoms: _119  and  _120
REMARK   46  A    between atoms: _119  and  _122
REMARK   47  A    between atoms: _122  and  _123
REMARK   48  A    between atoms: _129  and  _130
REMARK   49  A    between atoms: _135  and  _137
REMARK   50  A    between atoms: _137  and  _138
REMARK   51  A    between atoms: _137  and  _140
REMARK   52  A    between atoms: _140  and  _141
REMARK   53  A    between atoms: _143  and  _145
REMARK   54  A    between atoms: _145  and  _146
REMARK   55  A    between atoms: _145  and  _148
REMARK   56  A    between atoms: _148  and  _149
REMARK   57  A    between atoms: _154  and  _155
REMARK   58  A    between atoms: _157  and  _159
REMARK   59  A    between atoms: _159  and  _160
REMARK   60  A    between atoms: _159  and  _162
REMARK   61  A    between atoms: _162  and  _163
REMARK   62  A    between atoms: _163  and  _164
REMARK   63  A    between atoms: _164  and  _165
REMARK   64  A    between atoms: _174  and  _176
REMARK   65  A    between atoms: _176  and  _177
REMARK   66  A    between atoms: _176  and  _179
REMARK   67  A    between atoms: _179  and  _180
REMARK   68  A    between atoms: _185  and  _187
REMARK   69  A    between atoms: _187  and  _188
REMARK   70  A    between atoms: _191  and  _193
REMARK   71  A    between atoms: _193  and  _194
REMARK   72  A    between atoms: _197  and  _199
REMARK   73  A    between atoms: _199  and  _200
REMARK   74  A    between atoms: _203  and  _205
REMARK   75  A    between atoms: _205  and  _206
REMARK   76  A    between atoms: _205  and  _208
REMARK   77  A    between atoms: _208  and  _209
REMARK   78  A    between atoms: _209  and  _210
REMARK   79  A    between atoms: _210  and  _211
REMARK   80  A    between atoms: _220  and  _222
REMARK   81  A    between atoms: _222  and  _223
REMARK   82  A    between atoms: _222  and  _225
REMARK   83  A    between atoms: _225  and  _226
REMARK   84  A    between atoms: _226  and  _227
REMARK   85  A    between atoms: _227  and  _228
REMARK   86  A    between atoms: _237  and  _239
REMARK   87  A    between atoms: _239  and  _240
REMARK   88  A    between atoms: _239  and  _242
REMARK   89  A    between atoms: _242  and  _243
REMARK   90  A    between atoms: _246  and  _248
REMARK   91  A    between atoms: _248  and  _249
REMARK   92  A    between atoms: _251  and  _253
REMARK   93  A    between atoms: _253  and  _254
REMARK   94  A    between atoms: _253  and  _256
REMARK   95  A    between atoms: _256  and  _257
REMARK                            x       y       z     vdW  Elec       q    Type
REMARK                         _______ _______ _______ _____ _____    ______ ____
ROOT
ATOM      1  O   HOH     1     -11.888 -36.393  10.542  0.00  0.00    +0.000 OA
ENDROOT
TORSDOF 0
REMARK  Name = ../refined-set-2016/4n8q/4n8q_pocket.pdb
REMARK  95 active torsions:
REMARK  status: ('A' for Active; 'I' for Inactive)
REMARK    1  A    between atoms: _1  and  _3
REMARK    2  A    between atoms: _3  and  _4
REMARK    3  A    between atoms: _3  and  _6
REMARK    4  A    between atoms: _6  and  _7
REMARK    5  A    between atoms: _7  and  _8
REMARK    6  A    between atoms: _10  and  _12
REMARK    7  A    between atoms: _12  and  _13
REMARK    8  A    between atoms: _12  and  _15
REMARK    9  A    between atoms: _15  and  _16
REMARK   10  A    between atoms: _16  and  _17
REMARK   11  A    between atoms: _19  and  _21
REMARK   12  A    between atoms: _21  and  _22
REMARK   13  A    between atoms: _21  and  _24
REMARK   14  A    between atoms: _24  and  _25
REMARK   15  A    between atoms: _30  and  _32
REMARK   16  A    between atoms: _32  and  _33
REMARK   17  A    between atoms: _35  and  _37
REMARK   18  A    between atoms: _37  and  _38
REMARK   19  A    between atoms: _37  and  _40
REMARK   20  A    between atoms: _40  and  _41
REMARK   21  A    between atoms: _46  and  _48
REMARK   22  A    between atoms: _48  and  _49
REMARK   23  A    between atoms: _48  and  _51
REMARK   24  A    between atoms: _51  and  _52
REMARK   25  A    between atoms: _52  and  _53
REMARK   26  A    between atoms: _53  and  _54
REMARK   27  A    between atoms: _63  and  _65
REMARK   28  A    between atoms: _65  and  _66
REMARK   29  A    between atoms: _65  and  _68
REMARK   30  A    between atoms: _68  and  _69
REMARK   31  A    between atoms: _75  and  _77
REMARK   32  A    between atoms: _77  and  _78
REMARK   33  A    between atoms: _82  and  _83
REMARK   34  A    between atoms: _88  and  _90
REMARK   35  A    between atoms: _90  and  _91
REMARK   36  A    between atoms: _90  and  _93
REMARK   37  A    between atoms: _93  and  _94
REMARK   38  A    between atoms: _94  and  _95
REMARK   39  A    between atoms: _95  and  _96
REMARK   40  A    between atoms: _105  and  _107
REMARK   41  A    between atoms: _107  and  _108
REMARK   42  A    between atoms: _107  and  _110
REMARK   43  A    between atoms: _110  and  _111
REMARK   44  A    between atoms: _117  and  _119
REMARK   45  A    between atoms: _119  and  _120
REMARK   46  A    between atoms: _119  and  _122
REMARK   47  A    between atoms: _122  and  _123
REMARK   48  A    between atoms: _129  and  _130
REMARK   49  A    between atoms: _135  and  _137
REMARK   50  A    between atoms: _137  and  _138
REMARK   51  A    between atoms: _137  and  _140
REMARK   52  A    between atoms: _140  and  _141
REMARK   53  A    between atoms: _143  and  _145
REMARK   54  A    between atoms: _145  and  _146
REMARK   55  A    between atoms: _145  and  _148
REMARK   56  A    between atoms: _148  and  _149
REMARK   57  A    between atoms: _154  and  _155
REMARK   58  A    between atoms: _157  and  _159
REMARK   59  A    between atoms: _159  and  _160
REMARK   60  A    between atoms: _159  and  _162
REMARK   61  A    between atoms: _162  and  _163
REMARK   62  A    between atoms: _163  and  _164
REMARK   63  A    between atoms: _164  and  _165
REMARK   64  A    between atoms: _174  and  _176
REMARK   65  A    between atoms: _176  and  _177
REMARK   66  A    between atoms: _176  and  _179
REMARK   67  A    between atoms: _179  and  _180
REMARK   68  A    between atoms: _185  and  _187
REMARK   69  A    between atoms: _187  and  _188
REMARK   70  A    between atoms: _191  and  _193
REMARK   71  A    between atoms: _193  and  _194
REMARK   72  A    between atoms: _197  and  _199
REMARK   73  A    between atoms: _199  and  _200
REMARK   74  A    between atoms: _203  and  _205
REMARK   75  A    between atoms: _205  and  _206
REMARK   76  A    between atoms: _205  and  _208
REMARK   77  A    between atoms: _208  and  _209
REMARK   78  A    between atoms: _209  and  _210
REMARK   79  A    between atoms: _210  and  _211
REMARK   80  A    between atoms: _220  and  _222
REMARK   81  A    between atoms: _222  and  _223
REMARK   82  A    between atoms: _222  and  _225
REMARK   83  A    between atoms: _225  and  _226
REMARK   84  A    between atoms: _226  and  _227
REMARK   85  A    between atoms: _227  and  _228
REMARK   86  A    between atoms: _237  and  _239
REMARK   87  A    between atoms: _239  and  _240
REMARK   88  A    between atoms: _239  and  _242
REMARK   89  A    between atoms: _242  and  _243
REMARK   90  A    between atoms: _246  and  _248
REMARK   91  A    between atoms: _248  and  _249
REMARK   92  A    between atoms: _251  and  _253
REMARK   93  A    between atoms: _253  and  _254
REMARK   94  A    between atoms: _253  and  _256
REMARK   95  A    between atoms: _256  and  _257
REMARK                            x       y       z     vdW  Elec       q    Type
REMARK                         _______ _______ _______ _____ _____    ______ ____
ROOT
ATOM      1  O   HOH     1     -11.590 -33.640  10.207  0.00  0.00    +0.000 OA
ENDROOT
TORSDOF 0
REMARK  Name = ../refined-set-2016/4n8q/4n8q_pocket.pdb
REMARK  95 active torsions:
REMARK  status: ('A' for Active; 'I' for Inactive)
REMARK    1  A    between atoms: _1  and  _3
REMARK    2  A    between atoms: _3  and  _4
REMARK    3  A    between atoms: _3  and  _6
REMARK    4  A    between atoms: _6  and  _7
REMARK    5  A    between atoms: _7  and  _8
REMARK    6  A    between atoms: _10  and  _12
REMARK    7  A    between atoms: _12  and  _13
REMARK    8  A    between atoms: _12  and  _15
REMARK    9  A    between atoms: _15  and  _16
REMARK   10  A    between atoms: _16  and  _17
REMARK   11  A    between atoms: _19  and  _21
REMARK   12  A    between atoms: _21  and  _22
REMARK   13  A    between atoms: _21  and  _24
REMARK   14  A    between atoms: _24  and  _25
REMARK   15  A    between atoms: _30  and  _32
REMARK   16  A    between atoms: _32  and  _33
REMARK   17  A    between atoms: _35  and  _37
REMARK   18  A    between atoms: _37  and  _38
REMARK   19  A    between atoms: _37  and  _40
REMARK   20  A    between atoms: _40  and  _41
REMARK   21  A    between atoms: _46  and  _48
REMARK   22  A    between atoms: _48  and  _49
REMARK   23  A    between atoms: _48  and  _51
REMARK   24  A    between atoms: _51  and  _52
REMARK   25  A    between atoms: _52  and  _53
REMARK   26  A    between atoms: _53  and  _54
REMARK   27  A    between atoms: _63  and  _65
REMARK   28  A    between atoms: _65  and  _66
REMARK   29  A    between atoms: _65  and  _68
REMARK   30  A    between atoms: _68  and  _69
REMARK   31  A    between atoms: _75  and  _77
REMARK   32  A    between atoms: _77  and  _78
REMARK   33  A    between atoms: _82  and  _83
REMARK   34  A    between atoms: _88  and  _90
REMARK   35  A    between atoms: _90  and  _91
REMARK   36  A    between atoms: _90  and  _93
REMARK   37  A    between atoms: _93  and  _94
REMARK   38  A    between atoms: _94  and  _95
REMARK   39  A    between atoms: _95  and  _96
REMARK   40  A    between atoms: _105  and  _107
REMARK   41  A    between atoms: _107  and  _108
REMARK   42  A    between atoms: _107  and  _110
REMARK   43  A    between atoms: _110  and  _111
REMARK   44  A    between atoms: _117  and  _119
REMARK   45  A    between atoms: _119  and  _120
REMARK   46  A    between atoms: _119  and  _122
REMARK   47  A    between atoms: _122  and  _123
REMARK   48  A    between atoms: _129  and  _130
REMARK   49  A    between atoms: _135  and  _137
REMARK   50  A    between atoms: _137  and  _138
REMARK   51  A    between atoms: _137  and  _140
REMARK   52  A    between atoms: _140  and  _141
REMARK   53  A    between atoms: _143  and  _145
REMARK   54  A    between atoms: _145  and  _146
REMARK   55  A    between atoms: _145  and  _148
REMARK   56  A    between atoms: _148  and  _149
REMARK   57  A    between atoms: _154  and  _155
REMARK   58  A    between atoms: _157  and  _159
REMARK   59  A    between atoms: _159  and  _160
REMARK   60  A    between atoms: _159  and  _162
REMARK   61  A    between atoms: _162  and  _163
REMARK   62  A    between atoms: _163  and  _164
REMARK   63  A    between atoms: _164  and  _165
REMARK   64  A    between atoms: _174  and  _176
REMARK   65  A    between atoms: _176  and  _177
REMARK   66  A    between atoms: _176  and  _179
REMARK   67  A    between atoms: _179  and  _180
REMARK   68  A    between atoms: _185  and  _187
REMARK   69  A    between atoms: _187  and  _188
REMARK   70  A    between atoms: _191  and  _193
REMARK   71  A    between atoms: _193  and  _194
REMARK   72  A    between atoms: _197  and  _199
REMARK   73  A    between atoms: _199  and  _200
REMARK   74  A    between atoms: _203  and  _205
REMARK   75  A    between atoms: _205  and  _206
REMARK   76  A    between atoms: _205  and  _208
REMARK   77  A    between atoms: _208  and  _209
REMARK   78  A    between atoms: _209  and  _210
REMARK   79  A    between atoms: _210  and  _211
REMARK   80  A    between atoms: _220  and  _222
REMARK   81  A    between atoms: _222  and  _223
REMARK   82  A    between atoms: _222  and  _225
REMARK   83  A    between atoms: _225  and  _226
REMARK   84  A    between atoms: _226  and  _227
REMARK   85  A    between atoms: _227  and  _228
REMARK   86  A    between atoms: _237  and  _239
REMARK   87  A    between atoms: _239  and  _240
REMARK   88  A    between atoms: _239  and  _242
REMARK   89  A    between atoms: _242  and  _243
REMARK   90  A    between atoms: _246  and  _248
REMARK   91  A    between atoms: _248  and  _249
REMARK   92  A    between atoms: _251  and  _253
REMARK   93  A    between atoms: _253  and  _254
REMARK   94  A    between atoms: _253  and  _256
REMARK   95  A    between atoms: _256  and  _257
REMARK                            x       y       z     vdW  Elec       q    Type
REMARK                         _______ _______ _______ _____ _____    ______ ____
ROOT
ATOM      1  O   HOH     1     -10.039 -35.097  17.818  0.00  0.00    +0.000 OA
ENDROOT
TORSDOF 0
REMARK  Name = ../refined-set-2016/4n8q/4n8q_pocket.pdb
REMARK  95 active torsions:
REMARK  status: ('A' for Active; 'I' for Inactive)
REMARK    1  A    between atoms: _1  and  _3
REMARK    2  A    between atoms: _3  and  _4
REMARK    3  A    between atoms: _3  and  _6
REMARK    4  A    between atoms: _6  and  _7
REMARK    5  A    between atoms: _7  and  _8
REMARK    6  A    between atoms: _10  and  _12
REMARK    7  A    between atoms: _12  and  _13
REMARK    8  A    between atoms: _12  and  _15
REMARK    9  A    between atoms: _15  and  _16
REMARK   10  A    between atoms: _16  and  _17
REMARK   11  A    between atoms: _19  and  _21
REMARK   12  A    between atoms: _21  and  _22
REMARK   13  A    between atoms: _21  and  _24
REMARK   14  A    between atoms: _24  and  _25
REMARK   15  A    between atoms: _30  and  _32
REMARK   16  A    between atoms: _32  and  _33
REMARK   17  A    between atoms: _35  and  _37
REMARK   18  A    between atoms: _37  and  _38
REMARK   19  A    between atoms: _37  and  _40
REMARK   20  A    between atoms: _40  and  _41
REMARK   21  A    between atoms: _46  and  _48
REMARK   22  A    between atoms: _48  and  _49
REMARK   23  A    between atoms: _48  and  _51
REMARK   24  A    between atoms: _51  and  _52
REMARK   25  A    between atoms: _52  and  _53
REMARK   26  A    between atoms: _53  and  _54
REMARK   27  A    between atoms: _63  and  _65
REMARK   28  A    between atoms: _65  and  _66
REMARK   29  A    between atoms: _65  and  _68
REMARK   30  A    between atoms: _68  and  _69
REMARK   31  A    between atoms: _75  and  _77
REMARK   32  A    between atoms: _77  and  _78
REMARK   33  A    between atoms: _82  and  _83
REMARK   34  A    between atoms: _88  and  _90
REMARK   35  A    between atoms: _90  and  _91
REMARK   36  A    between atoms: _90  and  _93
REMARK   37  A    between atoms: _93  and  _94
REMARK   38  A    between atoms: _94  and  _95
REMARK   39  A    between atoms: _95  and  _96
REMARK   40  A    between atoms: _105  and  _107
REMARK   41  A    between atoms: _107  and  _108
REMARK   42  A    between atoms: _107  and  _110
REMARK   43  A    between atoms: _110  and  _111
REMARK   44  A    between atoms: _117  and  _119
REMARK   45  A    between atoms: _119  and  _120
REMARK   46  A    between atoms: _119  and  _122
REMARK   47  A    between atoms: _122  and  _123
REMARK   48  A    between atoms: _129  and  _130
REMARK   49  A    between atoms: _135  and  _137
REMARK   50  A    between atoms: _137  and  _138
REMARK   51  A    between atoms: _137  and  _140
REMARK   52  A    between atoms: _140  and  _141
REMARK   53  A    between atoms: _143  and  _145
REMARK   54  A    between atoms: _145  and  _146
REMARK   55  A    between atoms: _145  and  _148
REMARK   56  A    between atoms: _148  and  _149
REMARK   57  A    between atoms: _154  and  _155
REMARK   58  A    between atoms: _157  and  _159
REMARK   59  A    between atoms: _159  and  _160
REMARK   60  A    between atoms: _159  and  _162
REMARK   61  A    between atoms: _162  and  _163
REMARK   62  A    between atoms: _163  and  _164
REMARK   63  A    between atoms: _164  and  _165
REMARK   64  A    between atoms: _174  and  _176
REMARK   65  A    between atoms: _176  and  _177
REMARK   66  A    between atoms: _176  and  _179
REMARK   67  A    between atoms: _179  and  _180
REMARK   68  A    between atoms: _185  and  _187
REMARK   69  A    between atoms: _187  and  _188
REMARK   70  A    between atoms: _191  and  _193
REMARK   71  A    between atoms: _193  and  _194
REMARK   72  A    between atoms: _197  and  _199
REMARK   73  A    between atoms: _199  and  _200
REMARK   74  A    between atoms: _203  and  _205
REMARK   75  A    between atoms: _205  and  _206
REMARK   76  A    between atoms: _205  and  _208
REMARK   77  A    between atoms: _208  and  _209
REMARK   78  A    between atoms: _209  and  _210
REMARK   79  A    between atoms: _210  and  _211
REMARK   80  A    between atoms: _220  and  _222
REMARK   81  A    between atoms: _222  and  _223
REMARK   82  A    between atoms: _222  and  _225
REMARK   83  A    between atoms: _225  and  _226
REMARK   84  A    between atoms: _226  and  _227
REMARK   85  A    between atoms: _227  and  _228
REMARK   86  A    between atoms: _237  and  _239
REMARK   87  A    between atoms: _239  and  _240
REMARK   88  A    between atoms: _239  and  _242
REMARK   89  A    between atoms: _242  and  _243
REMARK   90  A    between atoms: _246  and  _248
REMARK   91  A    between atoms: _248  and  _249
REMARK   92  A    between atoms: _251  and  _253
REMARK   93  A    between atoms: _253  and  _254
REMARK   94  A    between atoms: _253  and  _256
REMARK   95  A    between atoms: _256  and  _257
REMARK                            x       y       z     vdW  Elec       q    Type
REMARK                         _______ _______ _______ _____ _____    ______ ____
ROOT
ATOM      1  O   HOH     1     -17.647 -39.011  14.340  0.00  0.00    +0.000 OA
ENDROOT
TORSDOF 0
REMARK  Name = ../refined-set-2016/4n8q/4n8q_pocket.pdb
REMARK  95 active torsions:
REMARK  status: ('A' for Active; 'I' for Inactive)
REMARK    1  A    between atoms: _1  and  _3
REMARK    2  A    between atoms: _3  and  _4
REMARK    3  A    between atoms: _3  and  _6
REMARK    4  A    between atoms: _6  and  _7
REMARK    5  A    between atoms: _7  and  _8
REMARK    6  A    between atoms: _10  and  _12
REMARK    7  A    between atoms: _12  and  _13
REMARK    8  A    between atoms: _12  and  _15
REMARK    9  A    between atoms: _15  and  _16
REMARK   10  A    between atoms: _16  and  _17
REMARK   11  A    between atoms: _19  and  _21
REMARK   12  A    between atoms: _21  and  _22
REMARK   13  A    between atoms: _21  and  _24
REMARK   14  A    between atoms: _24  and  _25
REMARK   15  A    between atoms: _30  and  _32
REMARK   16  A    between atoms: _32  and  _33
REMARK   17  A    between atoms: _35  and  _37
REMARK   18  A    between atoms: _37  and  _38
REMARK   19  A    between atoms: _37  and  _40
REMARK   20  A    between atoms: _40  and  _41
REMARK   21  A    between atoms: _46  and  _48
REMARK   22  A    between atoms: _48  and  _49
REMARK   23  A    between atoms: _48  and  _51
REMARK   24  A    between atoms: _51  and  _52
REMARK   25  A    between atoms: _52  and  _53
REMARK   26  A    between atoms: _53  and  _54
REMARK   27  A    between atoms: _63  and  _65
REMARK   28  A    between atoms: _65  and  _66
REMARK   29  A    between atoms: _65  and  _68
REMARK   30  A    between atoms: _68  and  _69
REMARK   31  A    between atoms: _75  and  _77
REMARK   32  A    between atoms: _77  and  _78
REMARK   33  A    between atoms: _82  and  _83
REMARK   34  A    between atoms: _88  and  _90
REMARK   35  A    between atoms: _90  and  _91
REMARK   36  A    between atoms: _90  and  _93
REMARK   37  A    between atoms: _93  and  _94
REMARK   38  A    between atoms: _94  and  _95
REMARK   39  A    between atoms: _95  and  _96
REMARK   40  A    between atoms: _105  and  _107
REMARK   41  A    between atoms: _107  and  _108
REMARK   42  A    between atoms: _107  and  _110
REMARK   43  A    between atoms: _110  and  _111
REMARK   44  A    between atoms: _117  and  _119
REMARK   45  A    between atoms: _119  and  _120
REMARK   46  A    between atoms: _119  and  _122
REMARK   47  A    between atoms: _122  and  _123
REMARK   48  A    between atoms: _129  and  _130
REMARK   49  A    between atoms: _135  and  _137
REMARK   50  A    between atoms: _137  and  _138
REMARK   51  A    between atoms: _137  and  _140
REMARK   52  A    between atoms: _140  and  _141
REMARK   53  A    between atoms: _143  and  _145
REMARK   54  A    between atoms: _145  and  _146
REMARK   55  A    between atoms: _145  and  _148
REMARK   56  A    between atoms: _148  and  _149
REMARK   57  A    between atoms: _154  and  _155
REMARK   58  A    between atoms: _157  and  _159
REMARK   59  A    between atoms: _159  and  _160
REMARK   60  A    between atoms: _159  and  _162
REMARK   61  A    between atoms: _162  and  _163
REMARK   62  A    between atoms: _163  and  _164
REMARK   63  A    between atoms: _164  and  _165
REMARK   64  A    between atoms: _174  and  _176
REMARK   65  A    between atoms: _176  and  _177
REMARK   66  A    between atoms: _176  and  _179
REMARK   67  A    between atoms: _179  and  _180
REMARK   68  A    between atoms: _185  and  _187
REMARK   69  A    between atoms: _187  and  _188
REMARK   70  A    between atoms: _191  and  _193
REMARK   71  A    between atoms: _193  and  _194
REMARK   72  A    between atoms: _197  and  _199
REMARK   73  A    between atoms: _199  and  _200
REMARK   74  A    between atoms: _203  and  _205
REMARK   75  A    between atoms: _205  and  _206
REMARK   76  A    between atoms: _205  and  _208
REMARK   77  A    between atoms: _208  and  _209
REMARK   78  A    between atoms: _209  and  _210
REMARK   79  A    between atoms: _210  and  _211
REMARK   80  A    between atoms: _220  and  _222
REMARK   81  A    between atoms: _222  and  _223
REMARK   82  A    between atoms: _222  and  _225
REMARK   83  A    between atoms: _225  and  _226
REMARK   84  A    between atoms: _226  and  _227
REMARK   85  A    between atoms: _227  and  _228
REMARK   86  A    between atoms: _237  and  _239
REMARK   87  A    between atoms: _239  and  _240
REMARK   88  A    between atoms: _239  and  _242
REMARK   89  A    between atoms: _242  and  _243
REMARK   90  A    between atoms: _246  and  _248
REMARK   91  A    between atoms: _248  and  _249
REMARK   92  A    between atoms: _251  and  _253
REMARK   93  A    between atoms: _253  and  _254
REMARK   94  A    between atoms: _253  and  _256
REMARK   95  A    between atoms: _256  and  _257
REMARK                            x       y       z     vdW  Elec       q    Type
REMARK                         _______ _______ _______ _____ _____    ______ ____
ROOT
ATOM      1  O   HOH     1     -17.100 -37.066  20.499  0.00  0.00    +0.000 OA
ENDROOT
TORSDOF 0
REMARK  Name = ../refined-set-2016/4n8q/4n8q_pocket.pdb
REMARK  95 active torsions:
REMARK  status: ('A' for Active; 'I' for Inactive)
REMARK    1  A    between atoms: _1  and  _3
REMARK    2  A    between atoms: _3  and  _4
REMARK    3  A    between atoms: _3  and  _6
REMARK    4  A    between atoms: _6  and  _7
REMARK    5  A    between atoms: _7  and  _8
REMARK    6  A    between atoms: _10  and  _12
REMARK    7  A    between atoms: _12  and  _13
REMARK    8  A    between atoms: _12  and  _15
REMARK    9  A    between atoms: _15  and  _16
REMARK   10  A    between atoms: _16  and  _17
REMARK   11  A    between atoms: _19  and  _21
REMARK   12  A    between atoms: _21  and  _22
REMARK   13  A    between atoms: _21  and  _24
REMARK   14  A    between atoms: _24  and  _25
REMARK   15  A    between atoms: _30  and  _32
REMARK   16  A    between atoms: _32  and  _33
REMARK   17  A    between atoms: _35  and  _37
REMARK   18  A    between atoms: _37  and  _38
REMARK   19  A    between atoms: _37  and  _40
REMARK   20  A    between atoms: _40  and  _41
REMARK   21  A    between atoms: _46  and  _48
REMARK   22  A    between atoms: _48  and  _49
REMARK   23  A    between atoms: _48  and  _51
REMARK   24  A    between atoms: _51  and  _52
REMARK   25  A    between atoms: _52  and  _53
REMARK   26  A    between atoms: _53  and  _54
REMARK   27  A    between atoms: _63  and  _65
REMARK   28  A    between atoms: _65  and  _66
REMARK   29  A    between atoms: _65  and  _68
REMARK   30  A    between atoms: _68  and  _69
REMARK   31  A    between atoms: _75  and  _77
REMARK   32  A    between atoms: _77  and  _78
REMARK   33  A    between atoms: _82  and  _83
REMARK   34  A    between atoms: _88  and  _90
REMARK   35  A    between atoms: _90  and  _91
REMARK   36  A    between atoms: _90  and  _93
REMARK   37  A    between atoms: _93  and  _94
REMARK   38  A    between atoms: _94  and  _95
REMARK   39  A    between atoms: _95  and  _96
REMARK   40  A    between atoms: _105  and  _107
REMARK   41  A    between atoms: _107  and  _108
REMARK   42  A    between atoms: _107  and  _110
REMARK   43  A    between atoms: _110  and  _111
REMARK   44  A    between atoms: _117  and  _119
REMARK   45  A    between atoms: _119  and  _120
REMARK   46  A    between atoms: _119  and  _122
REMARK   47  A    between atoms: _122  and  _123
REMARK   48  A    between atoms: _129  and  _130
REMARK   49  A    between atoms: _135  and  _137
REMARK   50  A    between atoms: _137  and  _138
REMARK   51  A    between atoms: _137  and  _140
REMARK   52  A    between atoms: _140  and  _141
REMARK   53  A    between atoms: _143  and  _145
REMARK   54  A    between atoms: _145  and  _146
REMARK   55  A    between atoms: _145  and  _148
REMARK   56  A    between atoms: _148  and  _149
REMARK   57  A    between atoms: _154  and  _155
REMARK   58  A    between atoms: _157  and  _159
REMARK   59  A    between atoms: _159  and  _160
REMARK   60  A    between atoms: _159  and  _162
REMARK   61  A    between atoms: _162  and  _163
REMARK   62  A    between atoms: _163  and  _164
REMARK   63  A    between atoms: _164  and  _165
REMARK   64  A    between atoms: _174  and  _176
REMARK   65  A    between atoms: _176  and  _177
REMARK   66  A    between atoms: _176  and  _179
REMARK   67  A    between atoms: _179  and  _180
REMARK   68  A    between atoms: _185  and  _187
REMARK   69  A    between atoms: _187  and  _188
REMARK   70  A    between atoms: _191  and  _193
REMARK   71  A    between atoms: _193  and  _194
REMARK   72  A    between atoms: _197  and  _199
REMARK   73  A    between atoms: _199  and  _200
REMARK   74  A    between atoms: _203  and  _205
REMARK   75  A    between atoms: _205  and  _206
REMARK   76  A    between atoms: _205  and  _208
REMARK   77  A    between atoms: _208  and  _209
REMARK   78  A    between atoms: _209  and  _210
REMARK   79  A    between atoms: _210  and  _211
REMARK   80  A    between atoms: _220  and  _222
REMARK   81  A    between atoms: _222  and  _223
REMARK   82  A    between atoms: _222  and  _225
REMARK   83  A    between atoms: _225  and  _226
REMARK   84  A    between atoms: _226  and  _227
REMARK   85  A    between atoms: _227  and  _228
REMARK   86  A    between atoms: _237  and  _239
REMARK   87  A    between atoms: _239  and  _240
REMARK   88  A    between atoms: _239  and  _242
REMARK   89  A    between atoms: _242  and  _243
REMARK   90  A    between atoms: _246  and  _248
REMARK   91  A    between atoms: _248  and  _249
REMARK   92  A    between atoms: _251  and  _253
REMARK   93  A    between atoms: _253  and  _254
REMARK   94  A    between atoms: _253  and  _256
REMARK   95  A    between atoms: _256  and  _257
REMARK                            x       y       z     vdW  Elec       q    Type
REMARK                         _______ _______ _______ _____ _____    ______ ____
ROOT
ATOM      1  O   HOH     1     -20.770 -33.083  20.395  0.00  0.00    +0.000 OA
ENDROOT
TORSDOF 0
