REMARK  Name = ../refined-set-2016/2oi2/2oi2_pocket.pdb
REMARK  214 active torsions:
REMARK  status: ('A' for Active; 'I' for Inactive)
REMARK    1  A    between atoms: _1  and  _3
REMARK    2  A    between atoms: _3  and  _4
REMARK    3  A    between atoms: _3  and  _6
REMARK    4  A    between atoms: _6  and  _7
REMARK    5  A    between atoms: _9  and  _11
REMARK    6  A    between atoms: _11  and  _12
REMARK    7  A    between atoms: _11  and  _14
REMARK    8  A    between atoms: _14  and  _15
REMARK    9  A    between atoms: _15  and  _16
REMARK   10  A    between atoms: _16  and  _17
REMARK   11  A    between atoms: _17  and  _18
REMARK   12  A    between atoms: _22  and  _24
REMARK   13  A    between atoms: _24  and  _25
REMARK   14  A    between atoms: _24  and  _27
REMARK   15  A    between atoms: _27  and  _28
REMARK   16  A    between atoms: _31  and  _33
REMARK   17  A    between atoms: _33  and  _34
REMARK   18  A    between atoms: _33  and  _36
REMARK   19  A    between atoms: _36  and  _37
REMARK   20  A    between atoms: _40  and  _42
REMARK   21  A    between atoms: _42  and  _43
REMARK   22  A    between atoms: _45  and  _47
REMARK   23  A    between atoms: _47  and  _48
REMARK   24  A    between atoms: _47  and  _50
REMARK   25  A    between atoms: _50  and  _51
REMARK   26  A    between atoms: _51  and  _52
REMARK   27  A    between atoms: _55  and  _57
REMARK   28  A    between atoms: _57  and  _58
REMARK   29  A    between atoms: _57  and  _60
REMARK   30  A    between atoms: _60  and  _61
REMARK   31  A    between atoms: _66  and  _68
REMARK   32  A    between atoms: _68  and  _69
REMARK   33  A    between atoms: _72  and  _74
REMARK   34  A    between atoms: _74  and  _75
REMARK   35  A    between atoms: _74  and  _77
REMARK   36  A    between atoms: _80  and  _82
REMARK   37  A    between atoms: _82  and  _83
REMARK   38  A    between atoms: _82  and  _85
REMARK   39  A    between atoms: _88  and  _90
REMARK   40  A    between atoms: _90  and  _91
REMARK   41  A    between atoms: _90  and  _93
REMARK   42  A    between atoms: _93  and  _94
REMARK   43  A    between atoms: _99  and  _100
REMARK   44  A    between atoms: _102  and  _104
REMARK   45  A    between atoms: _104  and  _105
REMARK   46  A    between atoms: _107  and  _109
REMARK   47  A    between atoms: _109  and  _110
REMARK   48  A    between atoms: _113  and  _115
REMARK   49  A    between atoms: _115  and  _116
REMARK   50  A    between atoms: _115  and  _118
REMARK   51  A    between atoms: _118  and  _119
REMARK   52  A    between atoms: _121  and  _123
REMARK   53  A    between atoms: _123  and  _124
REMARK   54  A    between atoms: _123  and  _126
REMARK   55  A    between atoms: _126  and  _127
REMARK   56  A    between atoms: _130  and  _132
REMARK   57  A    between atoms: _132  and  _133
REMARK   58  A    between atoms: _135  and  _137
REMARK   59  A    between atoms: _137  and  _138
REMARK   60  A    between atoms: _137  and  _140
REMARK   61  A    between atoms: _140  and  _141
REMARK   62  A    between atoms: _141  and  _142
REMARK   63  A    between atoms: _144  and  _146
REMARK   64  A    between atoms: _146  and  _147
REMARK   65  A    between atoms: _149  and  _151
REMARK   66  A    between atoms: _151  and  _152
REMARK   67  A    between atoms: _151  and  _154
REMARK   68  A    between atoms: _154  and  _155
REMARK   69  A    between atoms: _157  and  _159
REMARK   70  A    between atoms: _159  and  _160
REMARK   71  A    between atoms: _159  and  _162
REMARK   72  A    between atoms: _162  and  _163
REMARK   73  A    between atoms: _165  and  _167
REMARK   74  A    between atoms: _167  and  _168
REMARK   75  A    between atoms: _171  and  _173
REMARK   76  A    between atoms: _173  and  _174
REMARK   77  A    between atoms: _177  and  _179
REMARK   78  A    between atoms: _179  and  _180
REMARK   79  A    between atoms: _179  and  _182
REMARK   80  A    between atoms: _182  and  _183
REMARK   81  A    between atoms: _186  and  _188
REMARK   82  A    between atoms: _188  and  _189
REMARK   83  A    between atoms: _188  and  _191
REMARK   84  A    between atoms: _191  and  _192
REMARK   85  A    between atoms: _194  and  _196
REMARK   86  A    between atoms: _196  and  _197
REMARK   87  A    between atoms: _196  and  _199
REMARK   88  A    between atoms: _199  and  _200
REMARK   89  A    between atoms: _205  and  _207
REMARK   90  A    between atoms: _207  and  _208
REMARK   91  A    between atoms: _207  and  _210
REMARK   92  A    between atoms: _210  and  _211
REMARK   93  A    between atoms: _211  and  _212
REMARK   94  A    between atoms: _215  and  _217
REMARK   95  A    between atoms: _217  and  _218
REMARK   96  A    between atoms: _217  and  _220
REMARK   97  A    between atoms: _220  and  _221
REMARK   98  A    between atoms: _221  and  _222
REMARK   99  A    between atoms: _224  and  _226
REMARK  100  A    between atoms: _226  and  _227
REMARK  101  A    between atoms: _226  and  _229
REMARK  102  A    between atoms: _229  and  _230
REMARK  103  A    between atoms: _236  and  _237
REMARK  104  A    between atoms: _242  and  _244
REMARK  105  A    between atoms: _244  and  _245
REMARK  106  A    between atoms: _244  and  _247
REMARK  107  A    between atoms: _247  and  _248
REMARK  108  A    between atoms: _250  and  _252
REMARK  109  A    between atoms: _252  and  _253
REMARK  110  A    between atoms: _255  and  _257
REMARK  111  A    between atoms: _257  and  _258
REMARK  112  A    between atoms: _257  and  _260
REMARK  113  A    between atoms: _260  and  _261
REMARK  114  A    between atoms: _264  and  _266
REMARK  115  A    between atoms: _266  and  _267
REMARK  116  A    between atoms: _266  and  _269
REMARK  117  A    between atoms: _269  and  _270
REMARK  118  A    between atoms: _270  and  _272
REMARK  119  A    between atoms: _272  and  MG_501
REMARK  120  A    between atoms: _273  and  _275
REMARK  121  A    between atoms: _275  and  _276
REMARK  122  A    between atoms: _279  and  _281
REMARK  123  A    between atoms: _281  and  _282
REMARK  124  A    between atoms: _281  and  _284
REMARK  125  A    between atoms: _284  and  _285
REMARK  126  A    between atoms: _285  and  _286
REMARK  127  A    between atoms: _286  and  _287
REMARK  128  A    between atoms: _287  and  _288
REMARK  129  A    between atoms: _292  and  _294
REMARK  130  A    between atoms: _294  and  _295
REMARK  131  A    between atoms: _294  and  _297
REMARK  132  A    between atoms: _297  and  _298
REMARK  133  A    between atoms: _301  and  _303
REMARK  134  A    between atoms: _303  and  _304
REMARK  135  A    between atoms: _303  and  _306
REMARK  136  A    between atoms: _308  and  _310
REMARK  137  A    between atoms: _310  and  _311
REMARK  138  A    between atoms: _310  and  _313
REMARK  139  A    between atoms: _313  and  _314
REMARK  140  A    between atoms: _320  and  _322
REMARK  141  A    between atoms: _322  and  _323
REMARK  142  A    between atoms: _322  and  _325
REMARK  143  A    between atoms: _325  and  _326
REMARK  144  A    between atoms: _326  and  _327
REMARK  145  A    between atoms: _327  and  _328
REMARK  146  A    between atoms: _328  and  _329
REMARK  147  A    between atoms: _333  and  _335
REMARK  148  A    between atoms: _335  and  _336
REMARK  149  A    between atoms: _335  and  _338
REMARK  150  A    between atoms: _338  and  _339
REMARK  151  A    between atoms: _344  and  _345
REMARK  152  A    between atoms: _347  and  _349
REMARK  153  A    between atoms: _349  and  _350
REMARK  154  A    between atoms: _352  and  _354
REMARK  155  A    between atoms: _354  and  _355
REMARK  156  A    between atoms: _354  and  _357
REMARK  157  A    between atoms: _357  and  _358
REMARK  158  A    between atoms: _363  and  _365
REMARK  159  A    between atoms: _365  and  _366
REMARK  160  A    between atoms: _365  and  _368
REMARK  161  A    between atoms: _368  and  _369
REMARK  162  A    between atoms: _372  and  _374
REMARK  163  A    between atoms: _374  and  _375
REMARK  164  A    between atoms: _374  and  _377
REMARK  165  A    between atoms: _377  and  _378
REMARK  166  A    between atoms: _378  and  _379
REMARK  167  A    between atoms: _379  and  _380
REMARK  168  A    between atoms: _389  and  _391
REMARK  169  A    between atoms: _391  and  _392
REMARK  170  A    between atoms: _395  and  _397
REMARK  171  A    between atoms: _397  and  _398
REMARK  172  A    between atoms: _397  and  _400
REMARK  173  A    between atoms: _400  and  _401
REMARK  174  A    between atoms: _404  and  _406
REMARK  175  A    between atoms: _406  and  _407
REMARK  176  A    between atoms: _406  and  _409
REMARK  177  A    between atoms: _409  and  _410
REMARK  178  A    between atoms: _410  and  _411
REMARK  179  A    between atoms: _416  and  _418
REMARK  180  A    between atoms: _418  and  _419
REMARK  181  A    between atoms: _418  and  _421
REMARK  182  A    between atoms: _424  and  _426
REMARK  183  A    between atoms: _426  and  _427
REMARK  184  A    between atoms: _426  and  _429
REMARK  185  A    between atoms: _429  and  _430
REMARK  186  A    between atoms: _433  and  _435
REMARK  187  A    between atoms: _435  and  _436
REMARK  188  A    between atoms: _435  and  _438
REMARK  189  A    between atoms: _441  and  _443
REMARK  190  A    between atoms: _443  and  _444
REMARK  191  A    between atoms: _443  and  _446
REMARK  192  A    between atoms: _446  and  _447
REMARK  193  A    between atoms: _447  and  _448
REMARK  194  A    between atoms: _450  and  _452
REMARK  195  A    between atoms: _452  and  _453
REMARK  196  A    between atoms: _452  and  _455
REMARK  197  A    between atoms: _455  and  _456
REMARK  198  A    between atoms: _458  and  _460
REMARK  199  A    between atoms: _460  and  _461
REMARK  200  A    between atoms: _463  and  _465
REMARK  201  A    between atoms: _465  and  _466
REMARK  202  A    between atoms: _468  and  _470
REMARK  203  A    between atoms: _470  and  _471
REMARK  204  A    between atoms: _473  and  _475
REMARK  205  A    between atoms: _475  and  _476
REMARK  206  A    between atoms: _478  and  _480
REMARK  207  A    between atoms: _480  and  _481
REMARK  208  A    between atoms: _483  and  _485
REMARK  209  A    between atoms: _485  and  _486
REMARK  210  A    between atoms: _485  and  _488
REMARK  211  A    between atoms: _490  and  _492
REMARK  212  A    between atoms: _492  and  _493
REMARK  213  A    between atoms: _492  and  _495
REMARK  214  A    between atoms: _495  and  _496
REMARK                            x       y       z     vdW  Elec       q    Type
REMARK                         _______ _______ _______ _____ _____    ______ ____
ROOT
ATOM      1  C   LYS A   2      36.242  27.635  47.917  0.00  0.00    +0.241 C 
ATOM      2  N   ILE A   3      35.899  28.106  49.113  0.00  0.00    -0.297 N 
ATOM      3  H   ILE A   3      36.030  29.118  49.315  0.00  0.00    +0.150 HD
ATOM      4  O   LYS A   2      36.171  26.442  47.626  0.00  0.00    -0.273 OA
ENDROOT
BRANCH   2   5
ATOM      5  CA  ILE A   3      35.344  27.241  50.148  0.00  0.00    +0.149 C 
BRANCH   5   6
ATOM      6  C   ILE A   3      34.318  28.040  50.922  0.00  0.00    +0.241 C 
ATOM      7  N   ILE A   4      33.203  27.409  51.256  0.00  0.00    -0.298 N 
ATOM      8  H   ILE A   4      33.052  26.415  50.990  0.00  0.00    +0.150 HD
ATOM      9  O   ILE A   3      34.533  29.207  51.240  0.00  0.00    -0.273 OA
BRANCH   7  10
ATOM     10  CA  ILE A   4      32.202  28.139  52.000  0.00  0.00    +0.137 C 
BRANCH  10  11
ATOM     11  C   ILE A   4      32.391  28.001  53.489  0.00  0.00    +0.227 C 
ATOM     12  O   ILE A   4      32.405  26.904  54.021  0.00  0.00    -0.286 OA
ENDBRANCH  10  11
BRANCH  10  13
ATOM     13  CB  ILE A   4      30.801  27.673  51.644  0.00  0.00    +0.026 C 
ATOM     14  CG2 ILE A   4      29.796  28.468  52.425  0.00  0.00    +0.002 C 
BRANCH  13  15
ATOM     15  CG1 ILE A   4      30.575  27.850  50.148  0.00  0.00    +0.002 C 
ATOM     16  CD1 ILE A   4      29.322  27.264  49.687  0.00  0.00    +0.000 C 
ENDBRANCH  13  15
ENDBRANCH  10  13
ENDBRANCH   7  10
ENDBRANCH   5   6
BRANCH   5  17
ATOM     17  CB  ILE A   3      36.409  26.775  51.173  0.00  0.00    +0.027 C 
ATOM     18  CG2 ILE A   3      36.710  27.883  52.158  0.00  0.00    +0.002 C 
BRANCH  17  19
ATOM     19  CG1 ILE A   3      35.871  25.625  52.024  0.00  0.00    +0.002 C 
ATOM     20  CD1 ILE A   3      35.839  24.302  51.313  0.00  0.00    +0.000 C 
ENDBRANCH  17  19
ENDBRANCH   5  17
ENDBRANCH   2   5
BRANCH   1  21
ATOM     21  CA  LYS A   2      36.788  28.636  46.895  0.00  0.00    +0.149 C 
BRANCH  21  23
ATOM     22  C   SER A   1      38.022  28.466  44.853  0.00  0.00    +0.241 C 
ATOM     23  N   LYS A   2      37.154  27.925  45.693  0.00  0.00    -0.297 N 
ATOM     24  H   LYS A   2      36.738  26.994  45.489  0.00  0.00    +0.150 HD
ATOM     25  O   SER A   1      38.536  29.571  45.050  0.00  0.00    -0.274 OA
BRANCH  22  26
ATOM     26  CA  SER A   1      38.359  27.648  43.612  0.00  0.00    +0.174 C 
BRANCH  26  27
ATOM     27  N   SER A   1      39.595  28.091  42.965  0.00  0.00    -0.236 NA
ATOM     28  H   SER A   1      40.510  27.937  43.435  0.00  0.00    +0.142 HD
ENDBRANCH  26  27
BRANCH  26  29
ATOM     29  CB  SER A   1      38.463  26.161  43.979  0.00  0.00    +0.163 C 
BRANCH  29  30
ATOM     30  OG  SER A   1      37.233  25.615  44.433  0.00  0.00    -0.380 OA
ATOM     31  H   SER A   1      37.360  24.658  44.654  0.00  0.00    +0.211 HD
ENDBRANCH  29  30
ENDBRANCH  26  29
ENDBRANCH  22  26
ENDBRANCH  21  23
BRANCH  21  32
ATOM     32  CB  LYS A   2      35.756  29.717  46.540  0.00  0.00    +0.029 C 
BRANCH  32  33
ATOM     33  CG  LYS A   2      34.386  29.389  46.986  0.00  0.00    +0.000 C 
BRANCH  33  34
ATOM     34  CD  LYS A   2      33.881  28.184  46.231  0.00  0.00    -0.024 C 
BRANCH  34  35
ATOM     35  CE  LYS A   2      32.624  27.555  46.888  0.00  0.00    -0.086 C 
BRANCH  35  36
ATOM     36  NZ  LYS A   2      32.038  26.552  45.945  0.00  0.00    +0.380 N 
ATOM     37  HZ1 LYS A   2      31.194  26.124  46.376  0.00  0.00    -0.089 HD
ATOM     38  HZ2 LYS A   2      32.741  25.812  45.748  0.00  0.00    -0.089 HD
ATOM     39  HZ3 LYS A   2      31.773  27.026  45.058  0.00  0.00    -0.089 HD
ENDBRANCH  35  36
ENDBRANCH  34  35
ENDBRANCH  33  34
ENDBRANCH  32  33
ENDBRANCH  21  32
ENDBRANCH   1  21
TORSDOF 19
REMARK  Name = ../refined-set-2016/2oi2/2oi2_pocket.pdb
REMARK  214 active torsions:
REMARK  status: ('A' for Active; 'I' for Inactive)
REMARK    1  A    between atoms: _1  and  _3
REMARK    2  A    between atoms: _3  and  _4
REMARK    3  A    between atoms: _3  and  _6
REMARK    4  A    between atoms: _6  and  _7
REMARK    5  A    between atoms: _9  and  _11
REMARK    6  A    between atoms: _11  and  _12
REMARK    7  A    between atoms: _11  and  _14
REMARK    8  A    between atoms: _14  and  _15
REMARK    9  A    between atoms: _15  and  _16
REMARK   10  A    between atoms: _16  and  _17
REMARK   11  A    between atoms: _17  and  _18
REMARK   12  A    between atoms: _22  and  _24
REMARK   13  A    between atoms: _24  and  _25
REMARK   14  A    between atoms: _24  and  _27
REMARK   15  A    between atoms: _27  and  _28
REMARK   16  A    between atoms: _31  and  _33
REMARK   17  A    between atoms: _33  and  _34
REMARK   18  A    between atoms: _33  and  _36
REMARK   19  A    between atoms: _36  and  _37
REMARK   20  A    between atoms: _40  and  _42
REMARK   21  A    between atoms: _42  and  _43
REMARK   22  A    between atoms: _45  and  _47
REMARK   23  A    between atoms: _47  and  _48
REMARK   24  A    between atoms: _47  and  _50
REMARK   25  A    between atoms: _50  and  _51
REMARK   26  A    between atoms: _51  and  _52
REMARK   27  A    between atoms: _55  and  _57
REMARK   28  A    between atoms: _57  and  _58
REMARK   29  A    between atoms: _57  and  _60
REMARK   30  A    between atoms: _60  and  _61
REMARK   31  A    between atoms: _66  and  _68
REMARK   32  A    between atoms: _68  and  _69
REMARK   33  A    between atoms: _72  and  _74
REMARK   34  A    between atoms: _74  and  _75
REMARK   35  A    between atoms: _74  and  _77
REMARK   36  A    between atoms: _80  and  _82
REMARK   37  A    between atoms: _82  and  _83
REMARK   38  A    between atoms: _82  and  _85
REMARK   39  A    between atoms: _88  and  _90
REMARK   40  A    between atoms: _90  and  _91
REMARK   41  A    between atoms: _90  and  _93
REMARK   42  A    between atoms: _93  and  _94
REMARK   43  A    between atoms: _99  and  _100
REMARK   44  A    between atoms: _102  and  _104
REMARK   45  A    between atoms: _104  and  _105
REMARK   46  A    between atoms: _107  and  _109
REMARK   47  A    between atoms: _109  and  _110
REMARK   48  A    between atoms: _113  and  _115
REMARK   49  A    between atoms: _115  and  _116
REMARK   50  A    between atoms: _115  and  _118
REMARK   51  A    between atoms: _118  and  _119
REMARK   52  A    between atoms: _121  and  _123
REMARK   53  A    between atoms: _123  and  _124
REMARK   54  A    between atoms: _123  and  _126
REMARK   55  A    between atoms: _126  and  _127
REMARK   56  A    between atoms: _130  and  _132
REMARK   57  A    between atoms: _132  and  _133
REMARK   58  A    between atoms: _135  and  _137
REMARK   59  A    between atoms: _137  and  _138
REMARK   60  A    between atoms: _137  and  _140
REMARK   61  A    between atoms: _140  and  _141
REMARK   62  A    between atoms: _141  and  _142
REMARK   63  A    between atoms: _144  and  _146
REMARK   64  A    between atoms: _146  and  _147
REMARK   65  A    between atoms: _149  and  _151
REMARK   66  A    between atoms: _151  and  _152
REMARK   67  A    between atoms: _151  and  _154
REMARK   68  A    between atoms: _154  and  _155
REMARK   69  A    between atoms: _157  and  _159
REMARK   70  A    between atoms: _159  and  _160
REMARK   71  A    between atoms: _159  and  _162
REMARK   72  A    between atoms: _162  and  _163
REMARK   73  A    between atoms: _165  and  _167
REMARK   74  A    between atoms: _167  and  _168
REMARK   75  A    between atoms: _171  and  _173
REMARK   76  A    between atoms: _173  and  _174
REMARK   77  A    between atoms: _177  and  _179
REMARK   78  A    between atoms: _179  and  _180
REMARK   79  A    between atoms: _179  and  _182
REMARK   80  A    between atoms: _182  and  _183
REMARK   81  A    between atoms: _186  and  _188
REMARK   82  A    between atoms: _188  and  _189
REMARK   83  A    between atoms: _188  and  _191
REMARK   84  A    between atoms: _191  and  _192
REMARK   85  A    between atoms: _194  and  _196
REMARK   86  A    between atoms: _196  and  _197
REMARK   87  A    between atoms: _196  and  _199
REMARK   88  A    between atoms: _199  and  _200
REMARK   89  A    between atoms: _205  and  _207
REMARK   90  A    between atoms: _207  and  _208
REMARK   91  A    between atoms: _207  and  _210
REMARK   92  A    between atoms: _210  and  _211
REMARK   93  A    between atoms: _211  and  _212
REMARK   94  A    between atoms: _215  and  _217
REMARK   95  A    between atoms: _217  and  _218
REMARK   96  A    between atoms: _217  and  _220
REMARK   97  A    between atoms: _220  and  _221
REMARK   98  A    between atoms: _221  and  _222
REMARK   99  A    between atoms: _224  and  _226
REMARK  100  A    between atoms: _226  and  _227
REMARK  101  A    between atoms: _226  and  _229
REMARK  102  A    between atoms: _229  and  _230
REMARK  103  A    between atoms: _236  and  _237
REMARK  104  A    between atoms: _242  and  _244
REMARK  105  A    between atoms: _244  and  _245
REMARK  106  A    between atoms: _244  and  _247
REMARK  107  A    between atoms: _247  and  _248
REMARK  108  A    between atoms: _250  and  _252
REMARK  109  A    between atoms: _252  and  _253
REMARK  110  A    between atoms: _255  and  _257
REMARK  111  A    between atoms: _257  and  _258
REMARK  112  A    between atoms: _257  and  _260
REMARK  113  A    between atoms: _260  and  _261
REMARK  114  A    between atoms: _264  and  _266
REMARK  115  A    between atoms: _266  and  _267
REMARK  116  A    between atoms: _266  and  _269
REMARK  117  A    between atoms: _269  and  _270
REMARK  118  A    between atoms: _270  and  _272
REMARK  119  A    between atoms: _272  and  MG_501
REMARK  120  A    between atoms: _273  and  _275
REMARK  121  A    between atoms: _275  and  _276
REMARK  122  A    between atoms: _279  and  _281
REMARK  123  A    between atoms: _281  and  _282
REMARK  124  A    between atoms: _281  and  _284
REMARK  125  A    between atoms: _284  and  _285
REMARK  126  A    between atoms: _285  and  _286
REMARK  127  A    between atoms: _286  and  _287
REMARK  128  A    between atoms: _287  and  _288
REMARK  129  A    between atoms: _292  and  _294
REMARK  130  A    between atoms: _294  and  _295
REMARK  131  A    between atoms: _294  and  _297
REMARK  132  A    between atoms: _297  and  _298
REMARK  133  A    between atoms: _301  and  _303
REMARK  134  A    between atoms: _303  and  _304
REMARK  135  A    between atoms: _303  and  _306
REMARK  136  A    between atoms: _308  and  _310
REMARK  137  A    between atoms: _310  and  _311
REMARK  138  A    between atoms: _310  and  _313
REMARK  139  A    between atoms: _313  and  _314
REMARK  140  A    between atoms: _320  and  _322
REMARK  141  A    between atoms: _322  and  _323
REMARK  142  A    between atoms: _322  and  _325
REMARK  143  A    between atoms: _325  and  _326
REMARK  144  A    between atoms: _326  and  _327
REMARK  145  A    between atoms: _327  and  _328
REMARK  146  A    between atoms: _328  and  _329
REMARK  147  A    between atoms: _333  and  _335
REMARK  148  A    between atoms: _335  and  _336
REMARK  149  A    between atoms: _335  and  _338
REMARK  150  A    between atoms: _338  and  _339
REMARK  151  A    between atoms: _344  and  _345
REMARK  152  A    between atoms: _347  and  _349
REMARK  153  A    between atoms: _349  and  _350
REMARK  154  A    between atoms: _352  and  _354
REMARK  155  A    between atoms: _354  and  _355
REMARK  156  A    between atoms: _354  and  _357
REMARK  157  A    between atoms: _357  and  _358
REMARK  158  A    between atoms: _363  and  _365
REMARK  159  A    between atoms: _365  and  _366
REMARK  160  A    between atoms: _365  and  _368
REMARK  161  A    between atoms: _368  and  _369
REMARK  162  A    between atoms: _372  and  _374
REMARK  163  A    between atoms: _374  and  _375
REMARK  164  A    between atoms: _374  and  _377
REMARK  165  A    between atoms: _377  and  _378
REMARK  166  A    between atoms: _378  and  _379
REMARK  167  A    between atoms: _379  and  _380
REMARK  168  A    between atoms: _389  and  _391
REMARK  169  A    between atoms: _391  and  _392
REMARK  170  A    between atoms: _395  and  _397
REMARK  171  A    between atoms: _397  and  _398
REMARK  172  A    between atoms: _397  and  _400
REMARK  173  A    between atoms: _400  and  _401
REMARK  174  A    between atoms: _404  and  _406
REMARK  175  A    between atoms: _406  and  _407
REMARK  176  A    between atoms: _406  and  _409
REMARK  177  A    between atoms: _409  and  _410
REMARK  178  A    between atoms: _410  and  _411
REMARK  179  A    between atoms: _416  and  _418
REMARK  180  A    between atoms: _418  and  _419
REMARK  181  A    between atoms: _418  and  _421
REMARK  182  A    between atoms: _424  and  _426
REMARK  183  A    between atoms: _426  and  _427
REMARK  184  A    between atoms: _426  and  _429
REMARK  185  A    between atoms: _429  and  _430
REMARK  186  A    between atoms: _433  and  _435
REMARK  187  A    between atoms: _435  and  _436
REMARK  188  A    between atoms: _435  and  _438
REMARK  189  A    between atoms: _441  and  _443
REMARK  190  A    between atoms: _443  and  _444
REMARK  191  A    between atoms: _443  and  _446
REMARK  192  A    between atoms: _446  and  _447
REMARK  193  A    between atoms: _447  and  _448
REMARK  194  A    between atoms: _450  and  _452
REMARK  195  A    between atoms: _452  and  _453
REMARK  196  A    between atoms: _452  and  _455
REMARK  197  A    between atoms: _455  and  _456
REMARK  198  A    between atoms: _458  and  _460
REMARK  199  A    between atoms: _460  and  _461
REMARK  200  A    between atoms: _463  and  _465
REMARK  201  A    between atoms: _465  and  _466
REMARK  202  A    between atoms: _468  and  _470
REMARK  203  A    between atoms: _470  and  _471
REMARK  204  A    between atoms: _473  and  _475
REMARK  205  A    between atoms: _475  and  _476
REMARK  206  A    between atoms: _478  and  _480
REMARK  207  A    between atoms: _480  and  _481
REMARK  208  A    between atoms: _483  and  _485
REMARK  209  A    between atoms: _485  and  _486
REMARK  210  A    between atoms: _485  and  _488
REMARK  211  A    between atoms: _490  and  _492
REMARK  212  A    between atoms: _492  and  _493
REMARK  213  A    between atoms: _492  and  _495
REMARK  214  A    between atoms: _495  and  _496
REMARK                            x       y       z     vdW  Elec       q    Type
REMARK                         _______ _______ _______ _____ _____    ______ ____
ROOT
ATOM      1  C   ALA A   4      20.620  29.911  52.430  0.00  0.00    +0.241 C 
ATOM      2  O   ALA A   4      19.658  30.678  52.266  0.00  0.00    -0.273 OA
ATOM      3  N   VAL A   5      21.765  30.047  51.766  0.00  0.00    -0.297 N 
ATOM      4  H   VAL A   5      22.538  29.374  51.945  0.00  0.00    +0.150 HD
ENDROOT
BRANCH   1   5
ATOM      5  CA  ALA A   4      20.533  28.754  53.426  0.00  0.00    +0.149 C 
ATOM      6  CB  ALA A   4      20.995  29.220  54.755  0.00  0.00    +0.031 C 
BRANCH   5   8
ATOM      7  C   HIS A   3      21.056  26.939  51.883  0.00  0.00    +0.241 C 
ATOM      8  N   ALA A   4      21.346  27.619  52.991  0.00  0.00    -0.297 N 
ATOM      9  H   ALA A   4      22.169  27.336  53.560  0.00  0.00    +0.150 HD
ATOM     10  O   HIS A   3      20.075  27.193  51.179  0.00  0.00    -0.273 OA
BRANCH   7  11
ATOM     11  CA  HIS A   3      21.987  25.813  51.469  0.00  0.00    +0.155 C 
BRANCH  11  14
ATOM     12  C   GLU A   2      24.016  26.401  52.609  0.00  0.00    +0.241 C 
ATOM     13  O   GLU A   2      23.416  26.428  53.673  0.00  0.00    -0.273 OA
ATOM     14  N   HIS A   3      23.419  26.096  51.476  0.00  0.00    -0.297 N 
ATOM     15  H   HIS A   3      23.964  26.057  50.591  0.00  0.00    +0.150 HD
BRANCH  12  16
ATOM     16  CA  GLU A   2      25.509  26.648  52.570  0.00  0.00    +0.149 C 
BRANCH  16  18
ATOM     17  C   GLY A   1      25.167  28.842  53.643  0.00  0.00    +0.240 C 
ATOM     18  N   GLU A   2      25.842  27.695  53.550  0.00  0.00    -0.297 N 
ATOM     19  H   GLU A   2      26.639  27.533  54.199  0.00  0.00    +0.150 HD
ATOM     20  O   GLY A   1      24.248  29.142  52.885  0.00  0.00    -0.274 OA
BRANCH  17  21
ATOM     21  CA  GLY A   1      25.594  29.830  54.703  0.00  0.00    +0.169 C 
BRANCH  21  22
ATOM     22  N   GLY A   1      26.721  29.310  55.429  0.00  0.00    -0.236 NA
ATOM     23  H   GLY A   1      26.630  28.389  55.904  0.00  0.00    +0.142 HD
ENDBRANCH  21  22
ENDBRANCH  17  21
ENDBRANCH  16  18
BRANCH  16  24
ATOM     24  CB  GLU A   2      26.134  25.292  52.920  0.00  0.00    +0.041 C 
BRANCH  24  25
ATOM     25  CG  GLU A   2      27.620  25.193  52.914  0.00  0.00    +0.116 C 
BRANCH  25  26
ATOM     26  CD  GLU A   2      28.218  25.555  54.195  0.00  0.00    +0.365 C 
ATOM     27  OE2 GLU A   2      27.491  25.934  55.119  0.00  0.00    -0.246 OA
ATOM     28  OE1 GLU A   2      29.438  25.458  54.268  0.00  0.00    -0.246 OA
ENDBRANCH  25  26
ENDBRANCH  24  25
ENDBRANCH  16  24
ENDBRANCH  12  16
ENDBRANCH  11  14
BRANCH  11  29
ATOM     29  CB  HIS A   3      21.742  24.545  52.264  0.00  0.00    +0.076 C 
BRANCH  29  30
ATOM     30  CG  HIS A   3      22.194  23.323  51.515  0.00  0.00    +0.082 A 
ATOM     31  CD2 HIS A   3      23.388  22.703  51.497  0.00  0.00    +0.115 A 
ATOM     32  NE2 HIS A   3      23.332  21.736  50.530  0.00  0.00    -0.221 NA
ATOM     33  CE1 HIS A   3      22.124  21.765  49.970  0.00  0.00    +0.199 A 
ATOM     34  ND1 HIS A   3      21.422  22.715  50.552  0.00  0.00    -0.227 NA
ENDBRANCH  29  30
ENDBRANCH  11  29
ENDBRANCH   7  11
ENDBRANCH   5   8
ENDBRANCH   1   5
BRANCH   3  35
ATOM     35  CA  VAL A   5      21.963  31.108  50.800  0.00  0.00    +0.149 C 
BRANCH  35  36
ATOM     36  C   VAL A   5      20.917  30.939  49.695  0.00  0.00    +0.241 C 
ATOM     37  N   VAL A   6      20.524  29.704  49.463  0.00  0.00    -0.297 N 
ATOM     38  H   VAL A   6      20.916  28.923  50.027  0.00  0.00    +0.150 HD
ATOM     39  O   VAL A   5      20.453  31.900  49.084  0.00  0.00    -0.273 OA
BRANCH  37  40
ATOM     40  CA  VAL A   6      19.550  29.424  48.429  0.00  0.00    +0.149 C 
BRANCH  40  41
ATOM     41  C   VAL A   6      18.234  30.138  48.737  0.00  0.00    +0.241 C 
ATOM     42  N   TYR A   7      17.992  30.491  49.985  0.00  0.00    -0.297 N 
ATOM     43  H   TYR A   7      18.695  30.316  50.731  0.00  0.00    +0.150 HD
ATOM     44  O   VAL A   6      17.436  30.393  47.846  0.00  0.00    -0.273 OA
BRANCH  42  45
ATOM     45  CA  TYR A   7      16.725  31.129  50.297  0.00  0.00    +0.153 C 
BRANCH  45  46
ATOM     46  C   TYR A   7      16.868  32.580  50.708  0.00  0.00    +0.241 C 
ATOM     47  O   TYR A   7      16.058  33.147  51.436  0.00  0.00    -0.273 OA
ATOM     48  N   GLY A   8      17.967  33.165  50.260  0.00  0.00    -0.296 N 
ATOM     49  H   GLY A   8      18.672  32.611  49.734  0.00  0.00    +0.150 HD
BRANCH  48  50
ATOM     50  CA  GLY A   8      18.189  34.565  50.499  0.00  0.00    +0.163 C 
BRANCH  50  51
ATOM     51  C   GLY A   8      18.866  34.926  51.768  0.00  0.00    +0.229 C 
ATOM     52  O   GLY A   8      18.797  36.078  52.172  0.00  0.00    -0.286 OA
ENDBRANCH  50  51
ENDBRANCH  48  50
ENDBRANCH  45  46
BRANCH  45  53
ATOM     53  CB  TYR A   7      16.002  30.287  51.342  0.00  0.00    +0.055 C 
BRANCH  53  54
ATOM     54  CG  TYR A   7      15.637  28.929  50.781  0.00  0.00    -0.020 A 
ATOM     55  CD2 TYR A   7      16.545  27.866  50.793  0.00  0.00    -0.001 A 
ATOM     56  CE2 TYR A   7      16.249  26.652  50.139  0.00  0.00    +0.036 A 
ATOM     57  CZ  TYR A   7      15.041  26.512  49.474  0.00  0.00    +0.134 A 
ATOM     58  CE1 TYR A   7      14.138  27.556  49.466  0.00  0.00    +0.036 A 
ATOM     59  CD1 TYR A   7      14.437  28.746  50.116  0.00  0.00    -0.001 A 
BRANCH  57  60
ATOM     60  OH  TYR A   7      14.720  25.356  48.792  0.00  0.00    -0.506 OA
ATOM     61  HH  TYR A   7      15.458  24.702  48.887  0.00  0.00    +0.292 HD
ENDBRANCH  57  60
ENDBRANCH  53  54
ENDBRANCH  45  53
ENDBRANCH  42  45
ENDBRANCH  40  41
BRANCH  40  62
ATOM     62  CB  VAL A   6      19.319  27.893  48.320  0.00  0.00    +0.027 C 
ATOM     63  CG2 VAL A   6      20.511  27.245  47.703  0.00  0.00    +0.002 C 
ATOM     64  CG1 VAL A   6      18.082  27.580  47.499  0.00  0.00    +0.002 C 
ENDBRANCH  40  62
ENDBRANCH  37  40
ENDBRANCH  35  36
BRANCH  35  65
ATOM     65  CB  VAL A   5      23.410  31.058  50.212  0.00  0.00    +0.027 C 
ATOM     66  CG2 VAL A   5      23.620  29.780  49.411  0.00  0.00    +0.002 C 
ATOM     67  CG1 VAL A   5      23.677  32.275  49.354  0.00  0.00    +0.002 C 
ENDBRANCH  35  65
ENDBRANCH   3  35
TORSDOF 26
REMARK  Name = ../refined-set-2016/2oi2/2oi2_pocket.pdb
REMARK  214 active torsions:
REMARK  status: ('A' for Active; 'I' for Inactive)
REMARK    1  A    between atoms: _1  and  _3
REMARK    2  A    between atoms: _3  and  _4
REMARK    3  A    between atoms: _3  and  _6
REMARK    4  A    between atoms: _6  and  _7
REMARK    5  A    between atoms: _9  and  _11
REMARK    6  A    between atoms: _11  and  _12
REMARK    7  A    between atoms: _11  and  _14
REMARK    8  A    between atoms: _14  and  _15
REMARK    9  A    between atoms: _15  and  _16
REMARK   10  A    between atoms: _16  and  _17
REMARK   11  A    between atoms: _17  and  _18
REMARK   12  A    between atoms: _22  and  _24
REMARK   13  A    between atoms: _24  and  _25
REMARK   14  A    between atoms: _24  and  _27
REMARK   15  A    between atoms: _27  and  _28
REMARK   16  A    between atoms: _31  and  _33
REMARK   17  A    between atoms: _33  and  _34
REMARK   18  A    between atoms: _33  and  _36
REMARK   19  A    between atoms: _36  and  _37
REMARK   20  A    between atoms: _40  and  _42
REMARK   21  A    between atoms: _42  and  _43
REMARK   22  A    between atoms: _45  and  _47
REMARK   23  A    between atoms: _47  and  _48
REMARK   24  A    between atoms: _47  and  _50
REMARK   25  A    between atoms: _50  and  _51
REMARK   26  A    between atoms: _51  and  _52
REMARK   27  A    between atoms: _55  and  _57
REMARK   28  A    between atoms: _57  and  _58
REMARK   29  A    between atoms: _57  and  _60
REMARK   30  A    between atoms: _60  and  _61
REMARK   31  A    between atoms: _66  and  _68
REMARK   32  A    between atoms: _68  and  _69
REMARK   33  A    between atoms: _72  and  _74
REMARK   34  A    between atoms: _74  and  _75
REMARK   35  A    between atoms: _74  and  _77
REMARK   36  A    between atoms: _80  and  _82
REMARK   37  A    between atoms: _82  and  _83
REMARK   38  A    between atoms: _82  and  _85
REMARK   39  A    between atoms: _88  and  _90
REMARK   40  A    between atoms: _90  and  _91
REMARK   41  A    between atoms: _90  and  _93
REMARK   42  A    between atoms: _93  and  _94
REMARK   43  A    between atoms: _99  and  _100
REMARK   44  A    between atoms: _102  and  _104
REMARK   45  A    between atoms: _104  and  _105
REMARK   46  A    between atoms: _107  and  _109
REMARK   47  A    between atoms: _109  and  _110
REMARK   48  A    between atoms: _113  and  _115
REMARK   49  A    between atoms: _115  and  _116
REMARK   50  A    between atoms: _115  and  _118
REMARK   51  A    between atoms: _118  and  _119
REMARK   52  A    between atoms: _121  and  _123
REMARK   53  A    between atoms: _123  and  _124
REMARK   54  A    between atoms: _123  and  _126
REMARK   55  A    between atoms: _126  and  _127
REMARK   56  A    between atoms: _130  and  _132
REMARK   57  A    between atoms: _132  and  _133
REMARK   58  A    between atoms: _135  and  _137
REMARK   59  A    between atoms: _137  and  _138
REMARK   60  A    between atoms: _137  and  _140
REMARK   61  A    between atoms: _140  and  _141
REMARK   62  A    between atoms: _141  and  _142
REMARK   63  A    between atoms: _144  and  _146
REMARK   64  A    between atoms: _146  and  _147
REMARK   65  A    between atoms: _149  and  _151
REMARK   66  A    between atoms: _151  and  _152
REMARK   67  A    between atoms: _151  and  _154
REMARK   68  A    between atoms: _154  and  _155
REMARK   69  A    between atoms: _157  and  _159
REMARK   70  A    between atoms: _159  and  _160
REMARK   71  A    between atoms: _159  and  _162
REMARK   72  A    between atoms: _162  and  _163
REMARK   73  A    between atoms: _165  and  _167
REMARK   74  A    between atoms: _167  and  _168
REMARK   75  A    between atoms: _171  and  _173
REMARK   76  A    between atoms: _173  and  _174
REMARK   77  A    between atoms: _177  and  _179
REMARK   78  A    between atoms: _179  and  _180
REMARK   79  A    between atoms: _179  and  _182
REMARK   80  A    between atoms: _182  and  _183
REMARK   81  A    between atoms: _186  and  _188
REMARK   82  A    between atoms: _188  and  _189
REMARK   83  A    between atoms: _188  and  _191
REMARK   84  A    between atoms: _191  and  _192
REMARK   85  A    between atoms: _194  and  _196
REMARK   86  A    between atoms: _196  and  _197
REMARK   87  A    between atoms: _196  and  _199
REMARK   88  A    between atoms: _199  and  _200
REMARK   89  A    between atoms: _205  and  _207
REMARK   90  A    between atoms: _207  and  _208
REMARK   91  A    between atoms: _207  and  _210
REMARK   92  A    between atoms: _210  and  _211
REMARK   93  A    between atoms: _211  and  _212
REMARK   94  A    between atoms: _215  and  _217
REMARK   95  A    between atoms: _217  and  _218
REMARK   96  A    between atoms: _217  and  _220
REMARK   97  A    between atoms: _220  and  _221
REMARK   98  A    between atoms: _221  and  _222
REMARK   99  A    between atoms: _224  and  _226
REMARK  100  A    between atoms: _226  and  _227
REMARK  101  A    between atoms: _226  and  _229
REMARK  102  A    between atoms: _229  and  _230
REMARK  103  A    between atoms: _236  and  _237
REMARK  104  A    between atoms: _242  and  _244
REMARK  105  A    between atoms: _244  and  _245
REMARK  106  A    between atoms: _244  and  _247
REMARK  107  A    between atoms: _247  and  _248
REMARK  108  A    between atoms: _250  and  _252
REMARK  109  A    between atoms: _252  and  _253
REMARK  110  A    between atoms: _255  and  _257
REMARK  111  A    between atoms: _257  and  _258
REMARK  112  A    between atoms: _257  and  _260
REMARK  113  A    between atoms: _260  and  _261
REMARK  114  A    between atoms: _264  and  _266
REMARK  115  A    between atoms: _266  and  _267
REMARK  116  A    between atoms: _266  and  _269
REMARK  117  A    between atoms: _269  and  _270
REMARK  118  A    between atoms: _270  and  _272
REMARK  119  A    between atoms: _272  and  MG_501
REMARK  120  A    between atoms: _273  and  _275
REMARK  121  A    between atoms: _275  and  _276
REMARK  122  A    between atoms: _279  and  _281
REMARK  123  A    between atoms: _281  and  _282
REMARK  124  A    between atoms: _281  and  _284
REMARK  125  A    between atoms: _284  and  _285
REMARK  126  A    between atoms: _285  and  _286
REMARK  127  A    between atoms: _286  and  _287
REMARK  128  A    between atoms: _287  and  _288
REMARK  129  A    between atoms: _292  and  _294
REMARK  130  A    between atoms: _294  and  _295
REMARK  131  A    between atoms: _294  and  _297
REMARK  132  A    between atoms: _297  and  _298
REMARK  133  A    between atoms: _301  and  _303
REMARK  134  A    between atoms: _303  and  _304
REMARK  135  A    between atoms: _303  and  _306
REMARK  136  A    between atoms: _308  and  _310
REMARK  137  A    between atoms: _310  and  _311
REMARK  138  A    between atoms: _310  and  _313
REMARK  139  A    between atoms: _313  and  _314
REMARK  140  A    between atoms: _320  and  _322
REMARK  141  A    between atoms: _322  and  _323
REMARK  142  A    between atoms: _322  and  _325
REMARK  143  A    between atoms: _325  and  _326
REMARK  144  A    between atoms: _326  and  _327
REMARK  145  A    between atoms: _327  and  _328
REMARK  146  A    between atoms: _328  and  _329
REMARK  147  A    between atoms: _333  and  _335
REMARK  148  A    between atoms: _335  and  _336
REMARK  149  A    between atoms: _335  and  _338
REMARK  150  A    between atoms: _338  and  _339
REMARK  151  A    between atoms: _344  and  _345
REMARK  152  A    between atoms: _347  and  _349
REMARK  153  A    between atoms: _349  and  _350
REMARK  154  A    between atoms: _352  and  _354
REMARK  155  A    between atoms: _354  and  _355
REMARK  156  A    between atoms: _354  and  _357
REMARK  157  A    between atoms: _357  and  _358
REMARK  158  A    between atoms: _363  and  _365
REMARK  159  A    between atoms: _365  and  _366
REMARK  160  A    between atoms: _365  and  _368
REMARK  161  A    between atoms: _368  and  _369
REMARK  162  A    between atoms: _372  and  _374
REMARK  163  A    between atoms: _374  and  _375
REMARK  164  A    between atoms: _374  and  _377
REMARK  165  A    between atoms: _377  and  _378
REMARK  166  A    between atoms: _378  and  _379
REMARK  167  A    between atoms: _379  and  _380
REMARK  168  A    between atoms: _389  and  _391
REMARK  169  A    between atoms: _391  and  _392
REMARK  170  A    between atoms: _395  and  _397
REMARK  171  A    between atoms: _397  and  _398
REMARK  172  A    between atoms: _397  and  _400
REMARK  173  A    between atoms: _400  and  _401
REMARK  174  A    between atoms: _404  and  _406
REMARK  175  A    between atoms: _406  and  _407
REMARK  176  A    between atoms: _406  and  _409
REMARK  177  A    between atoms: _409  and  _410
REMARK  178  A    between atoms: _410  and  _411
REMARK  179  A    between atoms: _416  and  _418
REMARK  180  A    between atoms: _418  and  _419
REMARK  181  A    between atoms: _418  and  _421
REMARK  182  A    between atoms: _424  and  _426
REMARK  183  A    between atoms: _426  and  _427
REMARK  184  A    between atoms: _426  and  _429
REMARK  185  A    between atoms: _429  and  _430
REMARK  186  A    between atoms: _433  and  _435
REMARK  187  A    between atoms: _435  and  _436
REMARK  188  A    between atoms: _435  and  _438
REMARK  189  A    between atoms: _441  and  _443
REMARK  190  A    between atoms: _443  and  _444
REMARK  191  A    between atoms: _443  and  _446
REMARK  192  A    between atoms: _446  and  _447
REMARK  193  A    between atoms: _447  and  _448
REMARK  194  A    between atoms: _450  and  _452
REMARK  195  A    between atoms: _452  and  _453
REMARK  196  A    between atoms: _452  and  _455
REMARK  197  A    between atoms: _455  and  _456
REMARK  198  A    between atoms: _458  and  _460
REMARK  199  A    between atoms: _460  and  _461
REMARK  200  A    between atoms: _463  and  _465
REMARK  201  A    between atoms: _465  and  _466
REMARK  202  A    between atoms: _468  and  _470
REMARK  203  A    between atoms: _470  and  _471
REMARK  204  A    between atoms: _473  and  _475
REMARK  205  A    between atoms: _475  and  _476
REMARK  206  A    between atoms: _478  and  _480
REMARK  207  A    between atoms: _480  and  _481
REMARK  208  A    between atoms: _483  and  _485
REMARK  209  A    between atoms: _485  and  _486
REMARK  210  A    between atoms: _485  and  _488
REMARK  211  A    between atoms: _490  and  _492
REMARK  212  A    between atoms: _492  and  _493
REMARK  213  A    between atoms: _492  and  _495
REMARK  214  A    between atoms: _495  and  _496
REMARK                            x       y       z     vdW  Elec       q    Type
REMARK                         _______ _______ _______ _____ _____    ______ ____
ROOT
ATOM      1  CA  ALA A   1      26.796  33.325  53.166  0.00  0.00    +0.133 C 
ATOM      2  CB  ALA A   1      26.572  32.459  51.977  0.00  0.00    +0.027 C 
ENDROOT
BRANCH   1   3
ATOM      3  N   ALA A   1      25.815  34.396  53.206  0.00  0.00    -0.239 NA
ATOM      4  H   ALA A   1      26.000  35.278  52.686  0.00  0.00    +0.142 HD
ENDBRANCH   1   3
BRANCH   1   5
ATOM      5  C   ALA A   1      28.149  33.984  53.095  0.00  0.00    +0.224 C 
ATOM      6  O   ALA A   1      28.309  35.010  52.460  0.00  0.00    -0.287 OA
ENDBRANCH   1   5
TORSDOF 2
REMARK  Name = ../refined-set-2016/2oi2/2oi2_pocket.pdb
REMARK  214 active torsions:
REMARK  status: ('A' for Active; 'I' for Inactive)
REMARK    1  A    between atoms: _1  and  _3
REMARK    2  A    between atoms: _3  and  _4
REMARK    3  A    between atoms: _3  and  _6
REMARK    4  A    between atoms: _6  and  _7
REMARK    5  A    between atoms: _9  and  _11
REMARK    6  A    between atoms: _11  and  _12
REMARK    7  A    between atoms: _11  and  _14
REMARK    8  A    between atoms: _14  and  _15
REMARK    9  A    between atoms: _15  and  _16
REMARK   10  A    between atoms: _16  and  _17
REMARK   11  A    between atoms: _17  and  _18
REMARK   12  A    between atoms: _22  and  _24
REMARK   13  A    between atoms: _24  and  _25
REMARK   14  A    between atoms: _24  and  _27
REMARK   15  A    between atoms: _27  and  _28
REMARK   16  A    between atoms: _31  and  _33
REMARK   17  A    between atoms: _33  and  _34
REMARK   18  A    between atoms: _33  and  _36
REMARK   19  A    between atoms: _36  and  _37
REMARK   20  A    between atoms: _40  and  _42
REMARK   21  A    between atoms: _42  and  _43
REMARK   22  A    between atoms: _45  and  _47
REMARK   23  A    between atoms: _47  and  _48
REMARK   24  A    between atoms: _47  and  _50
REMARK   25  A    between atoms: _50  and  _51
REMARK   26  A    between atoms: _51  and  _52
REMARK   27  A    between atoms: _55  and  _57
REMARK   28  A    between atoms: _57  and  _58
REMARK   29  A    between atoms: _57  and  _60
REMARK   30  A    between atoms: _60  and  _61
REMARK   31  A    between atoms: _66  and  _68
REMARK   32  A    between atoms: _68  and  _69
REMARK   33  A    between atoms: _72  and  _74
REMARK   34  A    between atoms: _74  and  _75
REMARK   35  A    between atoms: _74  and  _77
REMARK   36  A    between atoms: _80  and  _82
REMARK   37  A    between atoms: _82  and  _83
REMARK   38  A    between atoms: _82  and  _85
REMARK   39  A    between atoms: _88  and  _90
REMARK   40  A    between atoms: _90  and  _91
REMARK   41  A    between atoms: _90  and  _93
REMARK   42  A    between atoms: _93  and  _94
REMARK   43  A    between atoms: _99  and  _100
REMARK   44  A    between atoms: _102  and  _104
REMARK   45  A    between atoms: _104  and  _105
REMARK   46  A    between atoms: _107  and  _109
REMARK   47  A    between atoms: _109  and  _110
REMARK   48  A    between atoms: _113  and  _115
REMARK   49  A    between atoms: _115  and  _116
REMARK   50  A    between atoms: _115  and  _118
REMARK   51  A    between atoms: _118  and  _119
REMARK   52  A    between atoms: _121  and  _123
REMARK   53  A    between atoms: _123  and  _124
REMARK   54  A    between atoms: _123  and  _126
REMARK   55  A    between atoms: _126  and  _127
REMARK   56  A    between atoms: _130  and  _132
REMARK   57  A    between atoms: _132  and  _133
REMARK   58  A    between atoms: _135  and  _137
REMARK   59  A    between atoms: _137  and  _138
REMARK   60  A    between atoms: _137  and  _140
REMARK   61  A    between atoms: _140  and  _141
REMARK   62  A    between atoms: _141  and  _142
REMARK   63  A    between atoms: _144  and  _146
REMARK   64  A    between atoms: _146  and  _147
REMARK   65  A    between atoms: _149  and  _151
REMARK   66  A    between atoms: _151  and  _152
REMARK   67  A    between atoms: _151  and  _154
REMARK   68  A    between atoms: _154  and  _155
REMARK   69  A    between atoms: _157  and  _159
REMARK   70  A    between atoms: _159  and  _160
REMARK   71  A    between atoms: _159  and  _162
REMARK   72  A    between atoms: _162  and  _163
REMARK   73  A    between atoms: _165  and  _167
REMARK   74  A    between atoms: _167  and  _168
REMARK   75  A    between atoms: _171  and  _173
REMARK   76  A    between atoms: _173  and  _174
REMARK   77  A    between atoms: _177  and  _179
REMARK   78  A    between atoms: _179  and  _180
REMARK   79  A    between atoms: _179  and  _182
REMARK   80  A    between atoms: _182  and  _183
REMARK   81  A    between atoms: _186  and  _188
REMARK   82  A    between atoms: _188  and  _189
REMARK   83  A    between atoms: _188  and  _191
REMARK   84  A    between atoms: _191  and  _192
REMARK   85  A    between atoms: _194  and  _196
REMARK   86  A    between atoms: _196  and  _197
REMARK   87  A    between atoms: _196  and  _199
REMARK   88  A    between atoms: _199  and  _200
REMARK   89  A    between atoms: _205  and  _207
REMARK   90  A    between atoms: _207  and  _208
REMARK   91  A    between atoms: _207  and  _210
REMARK   92  A    between atoms: _210  and  _211
REMARK   93  A    between atoms: _211  and  _212
REMARK   94  A    between atoms: _215  and  _217
REMARK   95  A    between atoms: _217  and  _218
REMARK   96  A    between atoms: _217  and  _220
REMARK   97  A    between atoms: _220  and  _221
REMARK   98  A    between atoms: _221  and  _222
REMARK   99  A    between atoms: _224  and  _226
REMARK  100  A    between atoms: _226  and  _227
REMARK  101  A    between atoms: _226  and  _229
REMARK  102  A    between atoms: _229  and  _230
REMARK  103  A    between atoms: _236  and  _237
REMARK  104  A    between atoms: _242  and  _244
REMARK  105  A    between atoms: _244  and  _245
REMARK  106  A    between atoms: _244  and  _247
REMARK  107  A    between atoms: _247  and  _248
REMARK  108  A    between atoms: _250  and  _252
REMARK  109  A    between atoms: _252  and  _253
REMARK  110  A    between atoms: _255  and  _257
REMARK  111  A    between atoms: _257  and  _258
REMARK  112  A    between atoms: _257  and  _260
REMARK  113  A    between atoms: _260  and  _261
REMARK  114  A    between atoms: _264  and  _266
REMARK  115  A    between atoms: _266  and  _267
REMARK  116  A    between atoms: _266  and  _269
REMARK  117  A    between atoms: _269  and  _270
REMARK  118  A    between atoms: _270  and  _272
REMARK  119  A    between atoms: _272  and  MG_501
REMARK  120  A    between atoms: _273  and  _275
REMARK  121  A    between atoms: _275  and  _276
REMARK  122  A    between atoms: _279  and  _281
REMARK  123  A    between atoms: _281  and  _282
REMARK  124  A    between atoms: _281  and  _284
REMARK  125  A    between atoms: _284  and  _285
REMARK  126  A    between atoms: _285  and  _286
REMARK  127  A    between atoms: _286  and  _287
REMARK  128  A    between atoms: _287  and  _288
REMARK  129  A    between atoms: _292  and  _294
REMARK  130  A    between atoms: _294  and  _295
REMARK  131  A    between atoms: _294  and  _297
REMARK  132  A    between atoms: _297  and  _298
REMARK  133  A    between atoms: _301  and  _303
REMARK  134  A    between atoms: _303  and  _304
REMARK  135  A    between atoms: _303  and  _306
REMARK  136  A    between atoms: _308  and  _310
REMARK  137  A    between atoms: _310  and  _311
REMARK  138  A    between atoms: _310  and  _313
REMARK  139  A    between atoms: _313  and  _314
REMARK  140  A    between atoms: _320  and  _322
REMARK  141  A    between atoms: _322  and  _323
REMARK  142  A    between atoms: _322  and  _325
REMARK  143  A    between atoms: _325  and  _326
REMARK  144  A    between atoms: _326  and  _327
REMARK  145  A    between atoms: _327  and  _328
REMARK  146  A    between atoms: _328  and  _329
REMARK  147  A    between atoms: _333  and  _335
REMARK  148  A    between atoms: _335  and  _336
REMARK  149  A    between atoms: _335  and  _338
REMARK  150  A    between atoms: _338  and  _339
REMARK  151  A    between atoms: _344  and  _345
REMARK  152  A    between atoms: _347  and  _349
REMARK  153  A    between atoms: _349  and  _350
REMARK  154  A    between atoms: _352  and  _354
REMARK  155  A    between atoms: _354  and  _355
REMARK  156  A    between atoms: _354  and  _357
REMARK  157  A    between atoms: _357  and  _358
REMARK  158  A    between atoms: _363  and  _365
REMARK  159  A    between atoms: _365  and  _366
REMARK  160  A    between atoms: _365  and  _368
REMARK  161  A    between atoms: _368  and  _369
REMARK  162  A    between atoms: _372  and  _374
REMARK  163  A    between atoms: _374  and  _375
REMARK  164  A    between atoms: _374  and  _377
REMARK  165  A    between atoms: _377  and  _378
REMARK  166  A    between atoms: _378  and  _379
REMARK  167  A    between atoms: _379  and  _380
REMARK  168  A    between atoms: _389  and  _391
REMARK  169  A    between atoms: _391  and  _392
REMARK  170  A    between atoms: _395  and  _397
REMARK  171  A    between atoms: _397  and  _398
REMARK  172  A    between atoms: _397  and  _400
REMARK  173  A    between atoms: _400  and  _401
REMARK  174  A    between atoms: _404  and  _406
REMARK  175  A    between atoms: _406  and  _407
REMARK  176  A    between atoms: _406  and  _409
REMARK  177  A    between atoms: _409  and  _410
REMARK  178  A    between atoms: _410  and  _411
REMARK  179  A    between atoms: _416  and  _418
REMARK  180  A    between atoms: _418  and  _419
REMARK  181  A    between atoms: _418  and  _421
REMARK  182  A    between atoms: _424  and  _426
REMARK  183  A    between atoms: _426  and  _427
REMARK  184  A    between atoms: _426  and  _429
REMARK  185  A    between atoms: _429  and  _430
REMARK  186  A    between atoms: _433  and  _435
REMARK  187  A    between atoms: _435  and  _436
REMARK  188  A    between atoms: _435  and  _438
REMARK  189  A    between atoms: _441  and  _443
REMARK  190  A    between atoms: _443  and  _444
REMARK  191  A    between atoms: _443  and  _446
REMARK  192  A    between atoms: _446  and  _447
REMARK  193  A    between atoms: _447  and  _448
REMARK  194  A    between atoms: _450  and  _452
REMARK  195  A    between atoms: _452  and  _453
REMARK  196  A    between atoms: _452  and  _455
REMARK  197  A    between atoms: _455  and  _456
REMARK  198  A    between atoms: _458  and  _460
REMARK  199  A    between atoms: _460  and  _461
REMARK  200  A    between atoms: _463  and  _465
REMARK  201  A    between atoms: _465  and  _466
REMARK  202  A    between atoms: _468  and  _470
REMARK  203  A    between atoms: _470  and  _471
REMARK  204  A    between atoms: _473  and  _475
REMARK  205  A    between atoms: _475  and  _476
REMARK  206  A    between atoms: _478  and  _480
REMARK  207  A    between atoms: _480  and  _481
REMARK  208  A    between atoms: _483  and  _485
REMARK  209  A    between atoms: _485  and  _486
REMARK  210  A    between atoms: _485  and  _488
REMARK  211  A    between atoms: _490  and  _492
REMARK  212  A    between atoms: _492  and  _493
REMARK  213  A    between atoms: _492  and  _495
REMARK  214  A    between atoms: _495  and  _496
REMARK                            x       y       z     vdW  Elec       q    Type
REMARK                         _______ _______ _______ _____ _____    ______ ____
ROOT
ATOM      1  CA  SER A   1      33.050  32.367  51.502  0.00  0.00    +0.163 C 
ENDROOT
BRANCH   1   2
ATOM      2  N   SER A   1      32.156  33.310  52.152  0.00  0.00    -0.237 NA
ATOM      3  H   SER A   1      32.130  34.300  51.834  0.00  0.00    +0.142 HD
ENDBRANCH   1   2
BRANCH   1   4
ATOM      4  CB  SER A   1      34.440  32.938  51.191  0.00  0.00    +0.227 C 
ATOM      5  OG  SER A   1      34.610  34.134  51.008  0.00  0.00    -0.287 OA
ENDBRANCH   1   4
BRANCH   1   6
ATOM      6  C   SER A   1      32.395  31.762  50.256  0.00  0.00    +0.162 C 
BRANCH   6   7
ATOM      7  O   SER A   1      31.994  32.729  49.322  0.00  0.00    -0.380 OA
ATOM      8  H   SER A   1      31.580  32.281  48.542  0.00  0.00    +0.211 HD
ENDBRANCH   6   7
ENDBRANCH   1   6
TORSDOF 4
REMARK  Name = ../refined-set-2016/2oi2/2oi2_pocket.pdb
REMARK  214 active torsions:
REMARK  status: ('A' for Active; 'I' for Inactive)
REMARK    1  A    between atoms: _1  and  _3
REMARK    2  A    between atoms: _3  and  _4
REMARK    3  A    between atoms: _3  and  _6
REMARK    4  A    between atoms: _6  and  _7
REMARK    5  A    between atoms: _9  and  _11
REMARK    6  A    between atoms: _11  and  _12
REMARK    7  A    between atoms: _11  and  _14
REMARK    8  A    between atoms: _14  and  _15
REMARK    9  A    between atoms: _15  and  _16
REMARK   10  A    between atoms: _16  and  _17
REMARK   11  A    between atoms: _17  and  _18
REMARK   12  A    between atoms: _22  and  _24
REMARK   13  A    between atoms: _24  and  _25
REMARK   14  A    between atoms: _24  and  _27
REMARK   15  A    between atoms: _27  and  _28
REMARK   16  A    between atoms: _31  and  _33
REMARK   17  A    between atoms: _33  and  _34
REMARK   18  A    between atoms: _33  and  _36
REMARK   19  A    between atoms: _36  and  _37
REMARK   20  A    between atoms: _40  and  _42
REMARK   21  A    between atoms: _42  and  _43
REMARK   22  A    between atoms: _45  and  _47
REMARK   23  A    between atoms: _47  and  _48
REMARK   24  A    between atoms: _47  and  _50
REMARK   25  A    between atoms: _50  and  _51
REMARK   26  A    between atoms: _51  and  _52
REMARK   27  A    between atoms: _55  and  _57
REMARK   28  A    between atoms: _57  and  _58
REMARK   29  A    between atoms: _57  and  _60
REMARK   30  A    between atoms: _60  and  _61
REMARK   31  A    between atoms: _66  and  _68
REMARK   32  A    between atoms: _68  and  _69
REMARK   33  A    between atoms: _72  and  _74
REMARK   34  A    between atoms: _74  and  _75
REMARK   35  A    between atoms: _74  and  _77
REMARK   36  A    between atoms: _80  and  _82
REMARK   37  A    between atoms: _82  and  _83
REMARK   38  A    between atoms: _82  and  _85
REMARK   39  A    between atoms: _88  and  _90
REMARK   40  A    between atoms: _90  and  _91
REMARK   41  A    between atoms: _90  and  _93
REMARK   42  A    between atoms: _93  and  _94
REMARK   43  A    between atoms: _99  and  _100
REMARK   44  A    between atoms: _102  and  _104
REMARK   45  A    between atoms: _104  and  _105
REMARK   46  A    between atoms: _107  and  _109
REMARK   47  A    between atoms: _109  and  _110
REMARK   48  A    between atoms: _113  and  _115
REMARK   49  A    between atoms: _115  and  _116
REMARK   50  A    between atoms: _115  and  _118
REMARK   51  A    between atoms: _118  and  _119
REMARK   52  A    between atoms: _121  and  _123
REMARK   53  A    between atoms: _123  and  _124
REMARK   54  A    between atoms: _123  and  _126
REMARK   55  A    between atoms: _126  and  _127
REMARK   56  A    between atoms: _130  and  _132
REMARK   57  A    between atoms: _132  and  _133
REMARK   58  A    between atoms: _135  and  _137
REMARK   59  A    between atoms: _137  and  _138
REMARK   60  A    between atoms: _137  and  _140
REMARK   61  A    between atoms: _140  and  _141
REMARK   62  A    between atoms: _141  and  _142
REMARK   63  A    between atoms: _144  and  _146
REMARK   64  A    between atoms: _146  and  _147
REMARK   65  A    between atoms: _149  and  _151
REMARK   66  A    between atoms: _151  and  _152
REMARK   67  A    between atoms: _151  and  _154
REMARK   68  A    between atoms: _154  and  _155
REMARK   69  A    between atoms: _157  and  _159
REMARK   70  A    between atoms: _159  and  _160
REMARK   71  A    between atoms: _159  and  _162
REMARK   72  A    between atoms: _162  and  _163
REMARK   73  A    between atoms: _165  and  _167
REMARK   74  A    between atoms: _167  and  _168
REMARK   75  A    between atoms: _171  and  _173
REMARK   76  A    between atoms: _173  and  _174
REMARK   77  A    between atoms: _177  and  _179
REMARK   78  A    between atoms: _179  and  _180
REMARK   79  A    between atoms: _179  and  _182
REMARK   80  A    between atoms: _182  and  _183
REMARK   81  A    between atoms: _186  and  _188
REMARK   82  A    between atoms: _188  and  _189
REMARK   83  A    between atoms: _188  and  _191
REMARK   84  A    between atoms: _191  and  _192
REMARK   85  A    between atoms: _194  and  _196
REMARK   86  A    between atoms: _196  and  _197
REMARK   87  A    between atoms: _196  and  _199
REMARK   88  A    between atoms: _199  and  _200
REMARK   89  A    between atoms: _205  and  _207
REMARK   90  A    between atoms: _207  and  _208
REMARK   91  A    between atoms: _207  and  _210
REMARK   92  A    between atoms: _210  and  _211
REMARK   93  A    between atoms: _211  and  _212
REMARK   94  A    between atoms: _215  and  _217
REMARK   95  A    between atoms: _217  and  _218
REMARK   96  A    between atoms: _217  and  _220
REMARK   97  A    between atoms: _220  and  _221
REMARK   98  A    between atoms: _221  and  _222
REMARK   99  A    between atoms: _224  and  _226
REMARK  100  A    between atoms: _226  and  _227
REMARK  101  A    between atoms: _226  and  _229
REMARK  102  A    between atoms: _229  and  _230
REMARK  103  A    between atoms: _236  and  _237
REMARK  104  A    between atoms: _242  and  _244
REMARK  105  A    between atoms: _244  and  _245
REMARK  106  A    between atoms: _244  and  _247
REMARK  107  A    between atoms: _247  and  _248
REMARK  108  A    between atoms: _250  and  _252
REMARK  109  A    between atoms: _252  and  _253
REMARK  110  A    between atoms: _255  and  _257
REMARK  111  A    between atoms: _257  and  _258
REMARK  112  A    between atoms: _257  and  _260
REMARK  113  A    between atoms: _260  and  _261
REMARK  114  A    between atoms: _264  and  _266
REMARK  115  A    between atoms: _266  and  _267
REMARK  116  A    between atoms: _266  and  _269
REMARK  117  A    between atoms: _269  and  _270
REMARK  118  A    between atoms: _270  and  _272
REMARK  119  A    between atoms: _272  and  MG_501
REMARK  120  A    between atoms: _273  and  _275
REMARK  121  A    between atoms: _275  and  _276
REMARK  122  A    between atoms: _279  and  _281
REMARK  123  A    between atoms: _281  and  _282
REMARK  124  A    between atoms: _281  and  _284
REMARK  125  A    between atoms: _284  and  _285
REMARK  126  A    between atoms: _285  and  _286
REMARK  127  A    between atoms: _286  and  _287
REMARK  128  A    between atoms: _287  and  _288
REMARK  129  A    between atoms: _292  and  _294
REMARK  130  A    between atoms: _294  and  _295
REMARK  131  A    between atoms: _294  and  _297
REMARK  132  A    between atoms: _297  and  _298
REMARK  133  A    between atoms: _301  and  _303
REMARK  134  A    between atoms: _303  and  _304
REMARK  135  A    between atoms: _303  and  _306
REMARK  136  A    between atoms: _308  and  _310
REMARK  137  A    between atoms: _310  and  _311
REMARK  138  A    between atoms: _310  and  _313
REMARK  139  A    between atoms: _313  and  _314
REMARK  140  A    between atoms: _320  and  _322
REMARK  141  A    between atoms: _322  and  _323
REMARK  142  A    between atoms: _322  and  _325
REMARK  143  A    between atoms: _325  and  _326
REMARK  144  A    between atoms: _326  and  _327
REMARK  145  A    between atoms: _327  and  _328
REMARK  146  A    between atoms: _328  and  _329
REMARK  147  A    between atoms: _333  and  _335
REMARK  148  A    between atoms: _335  and  _336
REMARK  149  A    between atoms: _335  and  _338
REMARK  150  A    between atoms: _338  and  _339
REMARK  151  A    between atoms: _344  and  _345
REMARK  152  A    between atoms: _347  and  _349
REMARK  153  A    between atoms: _349  and  _350
REMARK  154  A    between atoms: _352  and  _354
REMARK  155  A    between atoms: _354  and  _355
REMARK  156  A    between atoms: _354  and  _357
REMARK  157  A    between atoms: _357  and  _358
REMARK  158  A    between atoms: _363  and  _365
REMARK  159  A    between atoms: _365  and  _366
REMARK  160  A    between atoms: _365  and  _368
REMARK  161  A    between atoms: _368  and  _369
REMARK  162  A    between atoms: _372  and  _374
REMARK  163  A    between atoms: _374  and  _375
REMARK  164  A    between atoms: _374  and  _377
REMARK  165  A    between atoms: _377  and  _378
REMARK  166  A    between atoms: _378  and  _379
REMARK  167  A    between atoms: _379  and  _380
REMARK  168  A    between atoms: _389  and  _391
REMARK  169  A    between atoms: _391  and  _392
REMARK  170  A    between atoms: _395  and  _397
REMARK  171  A    between atoms: _397  and  _398
REMARK  172  A    between atoms: _397  and  _400
REMARK  173  A    between atoms: _400  and  _401
REMARK  174  A    between atoms: _404  and  _406
REMARK  175  A    between atoms: _406  and  _407
REMARK  176  A    between atoms: _406  and  _409
REMARK  177  A    between atoms: _409  and  _410
REMARK  178  A    between atoms: _410  and  _411
REMARK  179  A    between atoms: _416  and  _418
REMARK  180  A    between atoms: _418  and  _419
REMARK  181  A    between atoms: _418  and  _421
REMARK  182  A    between atoms: _424  and  _426
REMARK  183  A    between atoms: _426  and  _427
REMARK  184  A    between atoms: _426  and  _429
REMARK  185  A    between atoms: _429  and  _430
REMARK  186  A    between atoms: _433  and  _435
REMARK  187  A    between atoms: _435  and  _436
REMARK  188  A    between atoms: _435  and  _438
REMARK  189  A    between atoms: _441  and  _443
REMARK  190  A    between atoms: _443  and  _444
REMARK  191  A    between atoms: _443  and  _446
REMARK  192  A    between atoms: _446  and  _447
REMARK  193  A    between atoms: _447  and  _448
REMARK  194  A    between atoms: _450  and  _452
REMARK  195  A    between atoms: _452  and  _453
REMARK  196  A    between atoms: _452  and  _455
REMARK  197  A    between atoms: _455  and  _456
REMARK  198  A    between atoms: _458  and  _460
REMARK  199  A    between atoms: _460  and  _461
REMARK  200  A    between atoms: _463  and  _465
REMARK  201  A    between atoms: _465  and  _466
REMARK  202  A    between atoms: _468  and  _470
REMARK  203  A    between atoms: _470  and  _471
REMARK  204  A    between atoms: _473  and  _475
REMARK  205  A    between atoms: _475  and  _476
REMARK  206  A    between atoms: _478  and  _480
REMARK  207  A    between atoms: _480  and  _481
REMARK  208  A    between atoms: _483  and  _485
REMARK  209  A    between atoms: _485  and  _486
REMARK  210  A    between atoms: _485  and  _488
REMARK  211  A    between atoms: _490  and  _492
REMARK  212  A    between atoms: _492  and  _493
REMARK  213  A    between atoms: _492  and  _495
REMARK  214  A    between atoms: _495  and  _496
REMARK                            x       y       z     vdW  Elec       q    Type
REMARK                         _______ _______ _______ _____ _____    ______ ____
ROOT
ATOM      1  CA  THR A   1      28.784  21.868  34.370  0.00  0.00    +0.160 C 
ENDROOT
BRANCH   1   2
ATOM      2  N   THR A   1      28.257  20.529  34.624  0.00  0.00    -0.237 NA
ATOM      3  H   THR A   1      28.182  20.175  35.599  0.00  0.00    +0.142 HD
ENDBRANCH   1   2
BRANCH   1   4
ATOM      4  CB  THR A   1      29.100  22.599  35.723  0.00  0.00    +0.134 C 
ATOM      5  CG2 THR A   1      27.926  22.448  36.682  0.00  0.00    +0.034 C 
BRANCH   4   6
ATOM      6  OG1 THR A   1      30.235  22.027  36.357  0.00  0.00    -0.383 OA
ATOM      7  HG1 THR A   1      30.413  22.504  37.206  0.00  0.00    +0.210 HD
ENDBRANCH   4   6
ENDBRANCH   1   4
BRANCH   1   8
ATOM      8  C   THR A   1      29.936  22.049  33.355  0.00  0.00    +0.227 C 
ATOM      9  O   THR A   1      30.111  23.138  32.788  0.00  0.00    -0.287 OA
ENDBRANCH   1   8
TORSDOF 4
REMARK  Name = ../refined-set-2016/2oi2/2oi2_pocket.pdb
REMARK  214 active torsions:
REMARK  status: ('A' for Active; 'I' for Inactive)
REMARK    1  A    between atoms: _1  and  _3
REMARK    2  A    between atoms: _3  and  _4
REMARK    3  A    between atoms: _3  and  _6
REMARK    4  A    between atoms: _6  and  _7
REMARK    5  A    between atoms: _9  and  _11
REMARK    6  A    between atoms: _11  and  _12
REMARK    7  A    between atoms: _11  and  _14
REMARK    8  A    between atoms: _14  and  _15
REMARK    9  A    between atoms: _15  and  _16
REMARK   10  A    between atoms: _16  and  _17
REMARK   11  A    between atoms: _17  and  _18
REMARK   12  A    between atoms: _22  and  _24
REMARK   13  A    between atoms: _24  and  _25
REMARK   14  A    between atoms: _24  and  _27
REMARK   15  A    between atoms: _27  and  _28
REMARK   16  A    between atoms: _31  and  _33
REMARK   17  A    between atoms: _33  and  _34
REMARK   18  A    between atoms: _33  and  _36
REMARK   19  A    between atoms: _36  and  _37
REMARK   20  A    between atoms: _40  and  _42
REMARK   21  A    between atoms: _42  and  _43
REMARK   22  A    between atoms: _45  and  _47
REMARK   23  A    between atoms: _47  and  _48
REMARK   24  A    between atoms: _47  and  _50
REMARK   25  A    between atoms: _50  and  _51
REMARK   26  A    between atoms: _51  and  _52
REMARK   27  A    between atoms: _55  and  _57
REMARK   28  A    between atoms: _57  and  _58
REMARK   29  A    between atoms: _57  and  _60
REMARK   30  A    between atoms: _60  and  _61
REMARK   31  A    between atoms: _66  and  _68
REMARK   32  A    between atoms: _68  and  _69
REMARK   33  A    between atoms: _72  and  _74
REMARK   34  A    between atoms: _74  and  _75
REMARK   35  A    between atoms: _74  and  _77
REMARK   36  A    between atoms: _80  and  _82
REMARK   37  A    between atoms: _82  and  _83
REMARK   38  A    between atoms: _82  and  _85
REMARK   39  A    between atoms: _88  and  _90
REMARK   40  A    between atoms: _90  and  _91
REMARK   41  A    between atoms: _90  and  _93
REMARK   42  A    between atoms: _93  and  _94
REMARK   43  A    between atoms: _99  and  _100
REMARK   44  A    between atoms: _102  and  _104
REMARK   45  A    between atoms: _104  and  _105
REMARK   46  A    between atoms: _107  and  _109
REMARK   47  A    between atoms: _109  and  _110
REMARK   48  A    between atoms: _113  and  _115
REMARK   49  A    between atoms: _115  and  _116
REMARK   50  A    between atoms: _115  and  _118
REMARK   51  A    between atoms: _118  and  _119
REMARK   52  A    between atoms: _121  and  _123
REMARK   53  A    between atoms: _123  and  _124
REMARK   54  A    between atoms: _123  and  _126
REMARK   55  A    between atoms: _126  and  _127
REMARK   56  A    between atoms: _130  and  _132
REMARK   57  A    between atoms: _132  and  _133
REMARK   58  A    between atoms: _135  and  _137
REMARK   59  A    between atoms: _137  and  _138
REMARK   60  A    between atoms: _137  and  _140
REMARK   61  A    between atoms: _140  and  _141
REMARK   62  A    between atoms: _141  and  _142
REMARK   63  A    between atoms: _144  and  _146
REMARK   64  A    between atoms: _146  and  _147
REMARK   65  A    between atoms: _149  and  _151
REMARK   66  A    between atoms: _151  and  _152
REMARK   67  A    between atoms: _151  and  _154
REMARK   68  A    between atoms: _154  and  _155
REMARK   69  A    between atoms: _157  and  _159
REMARK   70  A    between atoms: _159  and  _160
REMARK   71  A    between atoms: _159  and  _162
REMARK   72  A    between atoms: _162  and  _163
REMARK   73  A    between atoms: _165  and  _167
REMARK   74  A    between atoms: _167  and  _168
REMARK   75  A    between atoms: _171  and  _173
REMARK   76  A    between atoms: _173  and  _174
REMARK   77  A    between atoms: _177  and  _179
REMARK   78  A    between atoms: _179  and  _180
REMARK   79  A    between atoms: _179  and  _182
REMARK   80  A    between atoms: _182  and  _183
REMARK   81  A    between atoms: _186  and  _188
REMARK   82  A    between atoms: _188  and  _189
REMARK   83  A    between atoms: _188  and  _191
REMARK   84  A    between atoms: _191  and  _192
REMARK   85  A    between atoms: _194  and  _196
REMARK   86  A    between atoms: _196  and  _197
REMARK   87  A    between atoms: _196  and  _199
REMARK   88  A    between atoms: _199  and  _200
REMARK   89  A    between atoms: _205  and  _207
REMARK   90  A    between atoms: _207  and  _208
REMARK   91  A    between atoms: _207  and  _210
REMARK   92  A    between atoms: _210  and  _211
REMARK   93  A    between atoms: _211  and  _212
REMARK   94  A    between atoms: _215  and  _217
REMARK   95  A    between atoms: _217  and  _218
REMARK   96  A    between atoms: _217  and  _220
REMARK   97  A    between atoms: _220  and  _221
REMARK   98  A    between atoms: _221  and  _222
REMARK   99  A    between atoms: _224  and  _226
REMARK  100  A    between atoms: _226  and  _227
REMARK  101  A    between atoms: _226  and  _229
REMARK  102  A    between atoms: _229  and  _230
REMARK  103  A    between atoms: _236  and  _237
REMARK  104  A    between atoms: _242  and  _244
REMARK  105  A    between atoms: _244  and  _245
REMARK  106  A    between atoms: _244  and  _247
REMARK  107  A    between atoms: _247  and  _248
REMARK  108  A    between atoms: _250  and  _252
REMARK  109  A    between atoms: _252  and  _253
REMARK  110  A    between atoms: _255  and  _257
REMARK  111  A    between atoms: _257  and  _258
REMARK  112  A    between atoms: _257  and  _260
REMARK  113  A    between atoms: _260  and  _261
REMARK  114  A    between atoms: _264  and  _266
REMARK  115  A    between atoms: _266  and  _267
REMARK  116  A    between atoms: _266  and  _269
REMARK  117  A    between atoms: _269  and  _270
REMARK  118  A    between atoms: _270  and  _272
REMARK  119  A    between atoms: _272  and  MG_501
REMARK  120  A    between atoms: _273  and  _275
REMARK  121  A    between atoms: _275  and  _276
REMARK  122  A    between atoms: _279  and  _281
REMARK  123  A    between atoms: _281  and  _282
REMARK  124  A    between atoms: _281  and  _284
REMARK  125  A    between atoms: _284  and  _285
REMARK  126  A    between atoms: _285  and  _286
REMARK  127  A    between atoms: _286  and  _287
REMARK  128  A    between atoms: _287  and  _288
REMARK  129  A    between atoms: _292  and  _294
REMARK  130  A    between atoms: _294  and  _295
REMARK  131  A    between atoms: _294  and  _297
REMARK  132  A    between atoms: _297  and  _298
REMARK  133  A    between atoms: _301  and  _303
REMARK  134  A    between atoms: _303  and  _304
REMARK  135  A    between atoms: _303  and  _306
REMARK  136  A    between atoms: _308  and  _310
REMARK  137  A    between atoms: _310  and  _311
REMARK  138  A    between atoms: _310  and  _313
REMARK  139  A    between atoms: _313  and  _314
REMARK  140  A    between atoms: _320  and  _322
REMARK  141  A    between atoms: _322  and  _323
REMARK  142  A    between atoms: _322  and  _325
REMARK  143  A    between atoms: _325  and  _326
REMARK  144  A    between atoms: _326  and  _327
REMARK  145  A    between atoms: _327  and  _328
REMARK  146  A    between atoms: _328  and  _329
REMARK  147  A    between atoms: _333  and  _335
REMARK  148  A    between atoms: _335  and  _336
REMARK  149  A    between atoms: _335  and  _338
REMARK  150  A    between atoms: _338  and  _339
REMARK  151  A    between atoms: _344  and  _345
REMARK  152  A    between atoms: _347  and  _349
REMARK  153  A    between atoms: _349  and  _350
REMARK  154  A    between atoms: _352  and  _354
REMARK  155  A    between atoms: _354  and  _355
REMARK  156  A    between atoms: _354  and  _357
REMARK  157  A    between atoms: _357  and  _358
REMARK  158  A    between atoms: _363  and  _365
REMARK  159  A    between atoms: _365  and  _366
REMARK  160  A    between atoms: _365  and  _368
REMARK  161  A    between atoms: _368  and  _369
REMARK  162  A    between atoms: _372  and  _374
REMARK  163  A    between atoms: _374  and  _375
REMARK  164  A    between atoms: _374  and  _377
REMARK  165  A    between atoms: _377  and  _378
REMARK  166  A    between atoms: _378  and  _379
REMARK  167  A    between atoms: _379  and  _380
REMARK  168  A    between atoms: _389  and  _391
REMARK  169  A    between atoms: _391  and  _392
REMARK  170  A    between atoms: _395  and  _397
REMARK  171  A    between atoms: _397  and  _398
REMARK  172  A    between atoms: _397  and  _400
REMARK  173  A    between atoms: _400  and  _401
REMARK  174  A    between atoms: _404  and  _406
REMARK  175  A    between atoms: _406  and  _407
REMARK  176  A    between atoms: _406  and  _409
REMARK  177  A    between atoms: _409  and  _410
REMARK  178  A    between atoms: _410  and  _411
REMARK  179  A    between atoms: _416  and  _418
REMARK  180  A    between atoms: _418  and  _419
REMARK  181  A    between atoms: _418  and  _421
REMARK  182  A    between atoms: _424  and  _426
REMARK  183  A    between atoms: _426  and  _427
REMARK  184  A    between atoms: _426  and  _429
REMARK  185  A    between atoms: _429  and  _430
REMARK  186  A    between atoms: _433  and  _435
REMARK  187  A    between atoms: _435  and  _436
REMARK  188  A    between atoms: _435  and  _438
REMARK  189  A    between atoms: _441  and  _443
REMARK  190  A    between atoms: _443  and  _444
REMARK  191  A    between atoms: _443  and  _446
REMARK  192  A    between atoms: _446  and  _447
REMARK  193  A    between atoms: _447  and  _448
REMARK  194  A    between atoms: _450  and  _452
REMARK  195  A    between atoms: _452  and  _453
REMARK  196  A    between atoms: _452  and  _455
REMARK  197  A    between atoms: _455  and  _456
REMARK  198  A    between atoms: _458  and  _460
REMARK  199  A    between atoms: _460  and  _461
REMARK  200  A    between atoms: _463  and  _465
REMARK  201  A    between atoms: _465  and  _466
REMARK  202  A    between atoms: _468  and  _470
REMARK  203  A    between atoms: _470  and  _471
REMARK  204  A    between atoms: _473  and  _475
REMARK  205  A    between atoms: _475  and  _476
REMARK  206  A    between atoms: _478  and  _480
REMARK  207  A    between atoms: _480  and  _481
REMARK  208  A    between atoms: _483  and  _485
REMARK  209  A    between atoms: _485  and  _486
REMARK  210  A    between atoms: _485  and  _488
REMARK  211  A    between atoms: _490  and  _492
REMARK  212  A    between atoms: _492  and  _493
REMARK  213  A    between atoms: _492  and  _495
REMARK  214  A    between atoms: _495  and  _496
REMARK                            x       y       z     vdW  Elec       q    Type
REMARK                         _______ _______ _______ _____ _____    ______ ____
ROOT
ATOM      1  CA  SER A   5      31.059  23.461  39.895  0.00  0.00    +0.178 C 
ENDROOT
BRANCH   1   2
ATOM      2  C   SER A   5      31.411  24.692  39.063  0.00  0.00    +0.243 C 
ATOM      3  N   ALA A   6      31.407  25.865  39.686  0.00  0.00    -0.297 N 
ATOM      4  H   ALA A   6      31.156  25.897  40.695  0.00  0.00    +0.150 HD
ATOM      5  O   SER A   5      31.685  24.574  37.877  0.00  0.00    -0.273 OA
BRANCH   3   6
ATOM      6  CA  ALA A   6      31.741  27.104  39.006  0.00  0.00    +0.149 C 
ATOM      7  CB  ALA A   6      31.503  28.234  39.924  0.00  0.00    +0.031 C 
BRANCH   6   8
ATOM      8  C   ALA A   6      33.198  27.098  38.556  0.00  0.00    +0.241 C 
ATOM      9  N   ALA A   7      34.094  26.646  39.416  0.00  0.00    -0.297 N 
ATOM     10  H   ALA A   7      33.772  26.326  40.352  0.00  0.00    +0.150 HD
ATOM     11  O   ALA A   6      33.503  27.485  37.447  0.00  0.00    -0.273 OA
BRANCH   9  12
ATOM     12  CA  ALA A   7      35.511  26.579  39.104  0.00  0.00    +0.149 C 
ATOM     13  CB  ALA A   7      36.240  25.918  40.234  0.00  0.00    +0.031 C 
BRANCH  12  14
ATOM     14  C   ALA A   7      35.721  25.798  37.833  0.00  0.00    +0.241 C 
ATOM     15  N   ILE A   8      35.003  24.703  37.681  0.00  0.00    -0.297 N 
ATOM     16  H   ILE A   8      34.342  24.404  38.426  0.00  0.00    +0.150 HD
ATOM     17  O   ALA A   7      36.534  26.164  37.001  0.00  0.00    -0.273 OA
BRANCH  15  18
ATOM     18  CA  ILE A   8      35.140  23.920  36.472  0.00  0.00    +0.149 C 
BRANCH  18  19
ATOM     19  C   ILE A   8      34.591  24.681  35.281  0.00  0.00    +0.241 C 
ATOM     20  N   SER A   9      33.504  25.402  35.492  0.00  0.00    -0.296 N 
ATOM     21  H   SER A   9      33.081  25.427  36.442  0.00  0.00    +0.150 HD
ATOM     22  O   ILE A   8      35.143  24.615  34.177  0.00  0.00    -0.273 OA
BRANCH  20  23
ATOM     23  CA  SER A   9      32.899  26.152  34.427  0.00  0.00    +0.166 C 
BRANCH  23  24
ATOM     24  C   SER A   9      33.830  27.221  33.896  0.00  0.00    +0.229 C 
ATOM     25  O   SER A   9      33.988  27.367  32.699  0.00  0.00    -0.286 OA
ENDBRANCH  23  24
BRANCH  23  26
ATOM     26  CB  SER A   9      31.621  26.803  34.919  0.00  0.00    +0.165 C 
BRANCH  26  27
ATOM     27  OG  SER A   9      30.612  25.835  35.085  0.00  0.00    -0.380 OA
ATOM     28  H   SER A   9      30.908  25.162  35.748  0.00  0.00    +0.211 HD
ENDBRANCH  26  27
ENDBRANCH  23  26
ENDBRANCH  20  23
ENDBRANCH  18  19
BRANCH  18  29
ATOM     29  CB  ILE A   8      34.406  22.589  36.604  0.00  0.00    +0.027 C 
ATOM     30  CG2 ILE A   8      34.340  21.862  35.278  0.00  0.00    +0.002 C 
BRANCH  29  31
ATOM     31  CG1 ILE A   8      35.159  21.695  37.570  0.00  0.00    +0.002 C 
ATOM     32  CD1 ILE A   8      34.287  20.638  38.101  0.00  0.00    +0.000 C 
ENDBRANCH  29  31
ENDBRANCH  18  29
ENDBRANCH  15  18
ENDBRANCH  12  14
ENDBRANCH   9  12
ENDBRANCH   6   8
ENDBRANCH   3   6
ENDBRANCH   1   2
BRANCH   1  34
ATOM     33  C   SER A   4      33.136  23.511  41.155  0.00  0.00    +0.243 C 
ATOM     34  N   SER A   5      31.807  23.466  41.139  0.00  0.00    -0.295 N 
ATOM     35  H   SER A   5      31.290  23.434  42.041  0.00  0.00    +0.150 HD
ATOM     36  O   SER A   4      33.818  23.543  40.123  0.00  0.00    -0.273 OA
BRANCH  33  37
ATOM     37  CA  SER A   4      33.778  23.534  42.548  0.00  0.00    +0.178 C 
BRANCH  37  39
ATOM     38  C   GLY A   3      35.890  22.351  42.496  0.00  0.00    +0.243 C 
ATOM     39  N   SER A   4      35.239  23.504  42.568  0.00  0.00    -0.295 N 
ATOM     40  H   SER A   4      35.772  24.394  42.639  0.00  0.00    +0.150 HD
ATOM     41  O   GLY A   3      35.304  21.280  42.379  0.00  0.00    -0.273 OA
BRANCH  38  42
ATOM     42  CA  GLY A   3      37.405  22.358  42.546  0.00  0.00    +0.176 C 
BRANCH  42  45
ATOM     43  C   MET A   2      37.967  21.885  44.846  0.00  0.00    +0.241 C 
ATOM     44  O   MET A   2      37.797  23.070  45.201  0.00  0.00    -0.273 OA
ATOM     45  N   GLY A   3      37.827  21.454  43.595  0.00  0.00    -0.295 N 
ATOM     46  H   GLY A   3      38.023  20.458  43.369  0.00  0.00    +0.150 HD
BRANCH  43  47
ATOM     47  CA  MET A   2      38.362  20.813  45.864  0.00  0.00    +0.149 C 
BRANCH  47  50
ATOM     48  C   GLY A   1      37.388  18.696  45.291  0.00  0.00    +0.240 C 
ATOM     49  O   GLY A   1      36.304  19.087  45.741  0.00  0.00    -0.274 OA
ATOM     50  N   MET A   2      38.475  19.465  45.312  0.00  0.00    -0.297 N 
ATOM     51  H   MET A   2      39.382  19.114  44.944  0.00  0.00    +0.150 HD
BRANCH  48  52
ATOM     52  CA  GLY A   1      37.528  17.303  44.702  0.00  0.00    +0.169 C 
BRANCH  52  53
ATOM     53  N   GLY A   1      38.832  16.974  44.146  0.00  0.00    -0.236 NA
ATOM     54  H   GLY A   1      39.372  16.189  44.563  0.00  0.00    +0.142 HD
ENDBRANCH  52  53
ENDBRANCH  48  52
ENDBRANCH  47  50
BRANCH  47  55
ATOM     55  CB  MET A   2      39.639  21.215  46.575  0.00  0.00    +0.041 C 
BRANCH  55  56
ATOM     56  CG  MET A   2      39.882  20.341  47.728  0.00  0.00    +0.060 C 
BRANCH  56  57
ATOM     57  SD  MET A   2      40.931  21.130  48.847  0.00  0.00    -0.139 S 
ATOM     58  CE  MET A   2      41.245  19.650  50.018  0.00  0.00    +0.069 C 
ENDBRANCH  56  57
ENDBRANCH  55  56
ENDBRANCH  47  55
ENDBRANCH  43  47
ENDBRANCH  42  45
ENDBRANCH  38  42
ENDBRANCH  37  39
BRANCH  37  59
ATOM     59  CB  SER A   4      33.283  24.765  43.284  0.00  0.00    +0.166 C 
BRANCH  59  60
ATOM     60  OG  SER A   4      33.319  25.860  42.397  0.00  0.00    -0.380 OA
ATOM     61  H   SER A   4      32.998  26.672  42.864  0.00  0.00    +0.211 HD
ENDBRANCH  59  60
ENDBRANCH  37  59
ENDBRANCH  33  37
ENDBRANCH   1  34
BRANCH   1  62
ATOM     62  CB  SER A   5      29.554  23.411  40.170  0.00  0.00    +0.166 C 
BRANCH  62  63
ATOM     63  OG  SER A   5      29.147  24.453  41.033  0.00  0.00    -0.380 OA
ATOM     64  H   SER A   5      29.625  24.371  41.896  0.00  0.00    +0.211 HD
ENDBRANCH  62  63
ENDBRANCH   1  62
TORSDOF 29
REMARK  Name = ../refined-set-2016/2oi2/2oi2_pocket.pdb
REMARK  214 active torsions:
REMARK  status: ('A' for Active; 'I' for Inactive)
REMARK    1  A    between atoms: _1  and  _3
REMARK    2  A    between atoms: _3  and  _4
REMARK    3  A    between atoms: _3  and  _6
REMARK    4  A    between atoms: _6  and  _7
REMARK    5  A    between atoms: _9  and  _11
REMARK    6  A    between atoms: _11  and  _12
REMARK    7  A    between atoms: _11  and  _14
REMARK    8  A    between atoms: _14  and  _15
REMARK    9  A    between atoms: _15  and  _16
REMARK   10  A    between atoms: _16  and  _17
REMARK   11  A    between atoms: _17  and  _18
REMARK   12  A    between atoms: _22  and  _24
REMARK   13  A    between atoms: _24  and  _25
REMARK   14  A    between atoms: _24  and  _27
REMARK   15  A    between atoms: _27  and  _28
REMARK   16  A    between atoms: _31  and  _33
REMARK   17  A    between atoms: _33  and  _34
REMARK   18  A    between atoms: _33  and  _36
REMARK   19  A    between atoms: _36  and  _37
REMARK   20  A    between atoms: _40  and  _42
REMARK   21  A    between atoms: _42  and  _43
REMARK   22  A    between atoms: _45  and  _47
REMARK   23  A    between atoms: _47  and  _48
REMARK   24  A    between atoms: _47  and  _50
REMARK   25  A    between atoms: _50  and  _51
REMARK   26  A    between atoms: _51  and  _52
REMARK   27  A    between atoms: _55  and  _57
REMARK   28  A    between atoms: _57  and  _58
REMARK   29  A    between atoms: _57  and  _60
REMARK   30  A    between atoms: _60  and  _61
REMARK   31  A    between atoms: _66  and  _68
REMARK   32  A    between atoms: _68  and  _69
REMARK   33  A    between atoms: _72  and  _74
REMARK   34  A    between atoms: _74  and  _75
REMARK   35  A    between atoms: _74  and  _77
REMARK   36  A    between atoms: _80  and  _82
REMARK   37  A    between atoms: _82  and  _83
REMARK   38  A    between atoms: _82  and  _85
REMARK   39  A    between atoms: _88  and  _90
REMARK   40  A    between atoms: _90  and  _91
REMARK   41  A    between atoms: _90  and  _93
REMARK   42  A    between atoms: _93  and  _94
REMARK   43  A    between atoms: _99  and  _100
REMARK   44  A    between atoms: _102  and  _104
REMARK   45  A    between atoms: _104  and  _105
REMARK   46  A    between atoms: _107  and  _109
REMARK   47  A    between atoms: _109  and  _110
REMARK   48  A    between atoms: _113  and  _115
REMARK   49  A    between atoms: _115  and  _116
REMARK   50  A    between atoms: _115  and  _118
REMARK   51  A    between atoms: _118  and  _119
REMARK   52  A    between atoms: _121  and  _123
REMARK   53  A    between atoms: _123  and  _124
REMARK   54  A    between atoms: _123  and  _126
REMARK   55  A    between atoms: _126  and  _127
REMARK   56  A    between atoms: _130  and  _132
REMARK   57  A    between atoms: _132  and  _133
REMARK   58  A    between atoms: _135  and  _137
REMARK   59  A    between atoms: _137  and  _138
REMARK   60  A    between atoms: _137  and  _140
REMARK   61  A    between atoms: _140  and  _141
REMARK   62  A    between atoms: _141  and  _142
REMARK   63  A    between atoms: _144  and  _146
REMARK   64  A    between atoms: _146  and  _147
REMARK   65  A    between atoms: _149  and  _151
REMARK   66  A    between atoms: _151  and  _152
REMARK   67  A    between atoms: _151  and  _154
REMARK   68  A    between atoms: _154  and  _155
REMARK   69  A    between atoms: _157  and  _159
REMARK   70  A    between atoms: _159  and  _160
REMARK   71  A    between atoms: _159  and  _162
REMARK   72  A    between atoms: _162  and  _163
REMARK   73  A    between atoms: _165  and  _167
REMARK   74  A    between atoms: _167  and  _168
REMARK   75  A    between atoms: _171  and  _173
REMARK   76  A    between atoms: _173  and  _174
REMARK   77  A    between atoms: _177  and  _179
REMARK   78  A    between atoms: _179  and  _180
REMARK   79  A    between atoms: _179  and  _182
REMARK   80  A    between atoms: _182  and  _183
REMARK   81  A    between atoms: _186  and  _188
REMARK   82  A    between atoms: _188  and  _189
REMARK   83  A    between atoms: _188  and  _191
REMARK   84  A    between atoms: _191  and  _192
REMARK   85  A    between atoms: _194  and  _196
REMARK   86  A    between atoms: _196  and  _197
REMARK   87  A    between atoms: _196  and  _199
REMARK   88  A    between atoms: _199  and  _200
REMARK   89  A    between atoms: _205  and  _207
REMARK   90  A    between atoms: _207  and  _208
REMARK   91  A    between atoms: _207  and  _210
REMARK   92  A    between atoms: _210  and  _211
REMARK   93  A    between atoms: _211  and  _212
REMARK   94  A    between atoms: _215  and  _217
REMARK   95  A    between atoms: _217  and  _218
REMARK   96  A    between atoms: _217  and  _220
REMARK   97  A    between atoms: _220  and  _221
REMARK   98  A    between atoms: _221  and  _222
REMARK   99  A    between atoms: _224  and  _226
REMARK  100  A    between atoms: _226  and  _227
REMARK  101  A    between atoms: _226  and  _229
REMARK  102  A    between atoms: _229  and  _230
REMARK  103  A    between atoms: _236  and  _237
REMARK  104  A    between atoms: _242  and  _244
REMARK  105  A    between atoms: _244  and  _245
REMARK  106  A    between atoms: _244  and  _247
REMARK  107  A    between atoms: _247  and  _248
REMARK  108  A    between atoms: _250  and  _252
REMARK  109  A    between atoms: _252  and  _253
REMARK  110  A    between atoms: _255  and  _257
REMARK  111  A    between atoms: _257  and  _258
REMARK  112  A    between atoms: _257  and  _260
REMARK  113  A    between atoms: _260  and  _261
REMARK  114  A    between atoms: _264  and  _266
REMARK  115  A    between atoms: _266  and  _267
REMARK  116  A    between atoms: _266  and  _269
REMARK  117  A    between atoms: _269  and  _270
REMARK  118  A    between atoms: _270  and  _272
REMARK  119  A    between atoms: _272  and  MG_501
REMARK  120  A    between atoms: _273  and  _275
REMARK  121  A    between atoms: _275  and  _276
REMARK  122  A    between atoms: _279  and  _281
REMARK  123  A    between atoms: _281  and  _282
REMARK  124  A    between atoms: _281  and  _284
REMARK  125  A    between atoms: _284  and  _285
REMARK  126  A    between atoms: _285  and  _286
REMARK  127  A    between atoms: _286  and  _287
REMARK  128  A    between atoms: _287  and  _288
REMARK  129  A    between atoms: _292  and  _294
REMARK  130  A    between atoms: _294  and  _295
REMARK  131  A    between atoms: _294  and  _297
REMARK  132  A    between atoms: _297  and  _298
REMARK  133  A    between atoms: _301  and  _303
REMARK  134  A    between atoms: _303  and  _304
REMARK  135  A    between atoms: _303  and  _306
REMARK  136  A    between atoms: _308  and  _310
REMARK  137  A    between atoms: _310  and  _311
REMARK  138  A    between atoms: _310  and  _313
REMARK  139  A    between atoms: _313  and  _314
REMARK  140  A    between atoms: _320  and  _322
REMARK  141  A    between atoms: _322  and  _323
REMARK  142  A    between atoms: _322  and  _325
REMARK  143  A    between atoms: _325  and  _326
REMARK  144  A    between atoms: _326  and  _327
REMARK  145  A    between atoms: _327  and  _328
REMARK  146  A    between atoms: _328  and  _329
REMARK  147  A    between atoms: _333  and  _335
REMARK  148  A    between atoms: _335  and  _336
REMARK  149  A    between atoms: _335  and  _338
REMARK  150  A    between atoms: _338  and  _339
REMARK  151  A    between atoms: _344  and  _345
REMARK  152  A    between atoms: _347  and  _349
REMARK  153  A    between atoms: _349  and  _350
REMARK  154  A    between atoms: _352  and  _354
REMARK  155  A    between atoms: _354  and  _355
REMARK  156  A    between atoms: _354  and  _357
REMARK  157  A    between atoms: _357  and  _358
REMARK  158  A    between atoms: _363  and  _365
REMARK  159  A    between atoms: _365  and  _366
REMARK  160  A    between atoms: _365  and  _368
REMARK  161  A    between atoms: _368  and  _369
REMARK  162  A    between atoms: _372  and  _374
REMARK  163  A    between atoms: _374  and  _375
REMARK  164  A    between atoms: _374  and  _377
REMARK  165  A    between atoms: _377  and  _378
REMARK  166  A    between atoms: _378  and  _379
REMARK  167  A    between atoms: _379  and  _380
REMARK  168  A    between atoms: _389  and  _391
REMARK  169  A    between atoms: _391  and  _392
REMARK  170  A    between atoms: _395  and  _397
REMARK  171  A    between atoms: _397  and  _398
REMARK  172  A    between atoms: _397  and  _400
REMARK  173  A    between atoms: _400  and  _401
REMARK  174  A    between atoms: _404  and  _406
REMARK  175  A    between atoms: _406  and  _407
REMARK  176  A    between atoms: _406  and  _409
REMARK  177  A    between atoms: _409  and  _410
REMARK  178  A    between atoms: _410  and  _411
REMARK  179  A    between atoms: _416  and  _418
REMARK  180  A    between atoms: _418  and  _419
REMARK  181  A    between atoms: _418  and  _421
REMARK  182  A    between atoms: _424  and  _426
REMARK  183  A    between atoms: _426  and  _427
REMARK  184  A    between atoms: _426  and  _429
REMARK  185  A    between atoms: _429  and  _430
REMARK  186  A    between atoms: _433  and  _435
REMARK  187  A    between atoms: _435  and  _436
REMARK  188  A    between atoms: _435  and  _438
REMARK  189  A    between atoms: _441  and  _443
REMARK  190  A    between atoms: _443  and  _444
REMARK  191  A    between atoms: _443  and  _446
REMARK  192  A    between atoms: _446  and  _447
REMARK  193  A    between atoms: _447  and  _448
REMARK  194  A    between atoms: _450  and  _452
REMARK  195  A    between atoms: _452  and  _453
REMARK  196  A    between atoms: _452  and  _455
REMARK  197  A    between atoms: _455  and  _456
REMARK  198  A    between atoms: _458  and  _460
REMARK  199  A    between atoms: _460  and  _461
REMARK  200  A    between atoms: _463  and  _465
REMARK  201  A    between atoms: _465  and  _466
REMARK  202  A    between atoms: _468  and  _470
REMARK  203  A    between atoms: _470  and  _471
REMARK  204  A    between atoms: _473  and  _475
REMARK  205  A    between atoms: _475  and  _476
REMARK  206  A    between atoms: _478  and  _480
REMARK  207  A    between atoms: _480  and  _481
REMARK  208  A    between atoms: _483  and  _485
REMARK  209  A    between atoms: _485  and  _486
REMARK  210  A    between atoms: _485  and  _488
REMARK  211  A    between atoms: _490  and  _492
REMARK  212  A    between atoms: _492  and  _493
REMARK  213  A    between atoms: _492  and  _495
REMARK  214  A    between atoms: _495  and  _496
REMARK                            x       y       z     vdW  Elec       q    Type
REMARK                         _______ _______ _______ _____ _____    ______ ____
ROOT
ATOM      1  CB  ASN A   1      25.977  32.714  36.216  0.00  0.00    +0.110 C 
ENDROOT
BRANCH   1   2
ATOM      2  CG  ASN A   1      26.544  32.983  37.652  0.00  0.00    +0.221 C 
ATOM      3  ND2 ASN A   1      26.046  32.216  38.661  0.00  0.00    -0.329 N 
ATOM      4 HD21 ASN A   1      26.406  32.334  39.630  0.00  0.00    +0.145 HD
ATOM      5 HD22 ASN A   1      25.306  31.513  38.463  0.00  0.00    +0.145 HD
ATOM      6  OD1 ASN A   1      27.436  33.843  37.843  0.00  0.00    -0.275 OA
ENDBRANCH   1   2
BRANCH   1   7
ATOM      7  CA  ASN A   1      26.480  31.380  35.643  0.00  0.00    +0.142 C 
BRANCH   7   8
ATOM      8  N   ASN A   1      27.756  31.549  34.984  0.00  0.00    -0.239 NA
ATOM      9  H   ASN A   1      28.131  32.500  34.793  0.00  0.00    +0.142 HD
ENDBRANCH   7   8
BRANCH   7  10
ATOM     10  C   ASN A   1      25.443  30.711  34.790  0.00  0.00    +0.225 C 
ATOM     11  O   ASN A   1      24.615  29.974  35.299  0.00  0.00    -0.287 OA
ENDBRANCH   7  10
ENDBRANCH   1   7
TORSDOF 4
REMARK  Name = ../refined-set-2016/2oi2/2oi2_pocket.pdb
REMARK  214 active torsions:
REMARK  status: ('A' for Active; 'I' for Inactive)
REMARK    1  A    between atoms: _1  and  _3
REMARK    2  A    between atoms: _3  and  _4
REMARK    3  A    between atoms: _3  and  _6
REMARK    4  A    between atoms: _6  and  _7
REMARK    5  A    between atoms: _9  and  _11
REMARK    6  A    between atoms: _11  and  _12
REMARK    7  A    between atoms: _11  and  _14
REMARK    8  A    between atoms: _14  and  _15
REMARK    9  A    between atoms: _15  and  _16
REMARK   10  A    between atoms: _16  and  _17
REMARK   11  A    between atoms: _17  and  _18
REMARK   12  A    between atoms: _22  and  _24
REMARK   13  A    between atoms: _24  and  _25
REMARK   14  A    between atoms: _24  and  _27
REMARK   15  A    between atoms: _27  and  _28
REMARK   16  A    between atoms: _31  and  _33
REMARK   17  A    between atoms: _33  and  _34
REMARK   18  A    between atoms: _33  and  _36
REMARK   19  A    between atoms: _36  and  _37
REMARK   20  A    between atoms: _40  and  _42
REMARK   21  A    between atoms: _42  and  _43
REMARK   22  A    between atoms: _45  and  _47
REMARK   23  A    between atoms: _47  and  _48
REMARK   24  A    between atoms: _47  and  _50
REMARK   25  A    between atoms: _50  and  _51
REMARK   26  A    between atoms: _51  and  _52
REMARK   27  A    between atoms: _55  and  _57
REMARK   28  A    between atoms: _57  and  _58
REMARK   29  A    between atoms: _57  and  _60
REMARK   30  A    between atoms: _60  and  _61
REMARK   31  A    between atoms: _66  and  _68
REMARK   32  A    between atoms: _68  and  _69
REMARK   33  A    between atoms: _72  and  _74
REMARK   34  A    between atoms: _74  and  _75
REMARK   35  A    between atoms: _74  and  _77
REMARK   36  A    between atoms: _80  and  _82
REMARK   37  A    between atoms: _82  and  _83
REMARK   38  A    between atoms: _82  and  _85
REMARK   39  A    between atoms: _88  and  _90
REMARK   40  A    between atoms: _90  and  _91
REMARK   41  A    between atoms: _90  and  _93
REMARK   42  A    between atoms: _93  and  _94
REMARK   43  A    between atoms: _99  and  _100
REMARK   44  A    between atoms: _102  and  _104
REMARK   45  A    between atoms: _104  and  _105
REMARK   46  A    between atoms: _107  and  _109
REMARK   47  A    between atoms: _109  and  _110
REMARK   48  A    between atoms: _113  and  _115
REMARK   49  A    between atoms: _115  and  _116
REMARK   50  A    between atoms: _115  and  _118
REMARK   51  A    between atoms: _118  and  _119
REMARK   52  A    between atoms: _121  and  _123
REMARK   53  A    between atoms: _123  and  _124
REMARK   54  A    between atoms: _123  and  _126
REMARK   55  A    between atoms: _126  and  _127
REMARK   56  A    between atoms: _130  and  _132
REMARK   57  A    between atoms: _132  and  _133
REMARK   58  A    between atoms: _135  and  _137
REMARK   59  A    between atoms: _137  and  _138
REMARK   60  A    between atoms: _137  and  _140
REMARK   61  A    between atoms: _140  and  _141
REMARK   62  A    between atoms: _141  and  _142
REMARK   63  A    between atoms: _144  and  _146
REMARK   64  A    between atoms: _146  and  _147
REMARK   65  A    between atoms: _149  and  _151
REMARK   66  A    between atoms: _151  and  _152
REMARK   67  A    between atoms: _151  and  _154
REMARK   68  A    between atoms: _154  and  _155
REMARK   69  A    between atoms: _157  and  _159
REMARK   70  A    between atoms: _159  and  _160
REMARK   71  A    between atoms: _159  and  _162
REMARK   72  A    between atoms: _162  and  _163
REMARK   73  A    between atoms: _165  and  _167
REMARK   74  A    between atoms: _167  and  _168
REMARK   75  A    between atoms: _171  and  _173
REMARK   76  A    between atoms: _173  and  _174
REMARK   77  A    between atoms: _177  and  _179
REMARK   78  A    between atoms: _179  and  _180
REMARK   79  A    between atoms: _179  and  _182
REMARK   80  A    between atoms: _182  and  _183
REMARK   81  A    between atoms: _186  and  _188
REMARK   82  A    between atoms: _188  and  _189
REMARK   83  A    between atoms: _188  and  _191
REMARK   84  A    between atoms: _191  and  _192
REMARK   85  A    between atoms: _194  and  _196
REMARK   86  A    between atoms: _196  and  _197
REMARK   87  A    between atoms: _196  and  _199
REMARK   88  A    between atoms: _199  and  _200
REMARK   89  A    between atoms: _205  and  _207
REMARK   90  A    between atoms: _207  and  _208
REMARK   91  A    between atoms: _207  and  _210
REMARK   92  A    between atoms: _210  and  _211
REMARK   93  A    between atoms: _211  and  _212
REMARK   94  A    between atoms: _215  and  _217
REMARK   95  A    between atoms: _217  and  _218
REMARK   96  A    between atoms: _217  and  _220
REMARK   97  A    between atoms: _220  and  _221
REMARK   98  A    between atoms: _221  and  _222
REMARK   99  A    between atoms: _224  and  _226
REMARK  100  A    between atoms: _226  and  _227
REMARK  101  A    between atoms: _226  and  _229
REMARK  102  A    between atoms: _229  and  _230
REMARK  103  A    between atoms: _236  and  _237
REMARK  104  A    between atoms: _242  and  _244
REMARK  105  A    between atoms: _244  and  _245
REMARK  106  A    between atoms: _244  and  _247
REMARK  107  A    between atoms: _247  and  _248
REMARK  108  A    between atoms: _250  and  _252
REMARK  109  A    between atoms: _252  and  _253
REMARK  110  A    between atoms: _255  and  _257
REMARK  111  A    between atoms: _257  and  _258
REMARK  112  A    between atoms: _257  and  _260
REMARK  113  A    between atoms: _260  and  _261
REMARK  114  A    between atoms: _264  and  _266
REMARK  115  A    between atoms: _266  and  _267
REMARK  116  A    between atoms: _266  and  _269
REMARK  117  A    between atoms: _269  and  _270
REMARK  118  A    between atoms: _270  and  _272
REMARK  119  A    between atoms: _272  and  MG_501
REMARK  120  A    between atoms: _273  and  _275
REMARK  121  A    between atoms: _275  and  _276
REMARK  122  A    between atoms: _279  and  _281
REMARK  123  A    between atoms: _281  and  _282
REMARK  124  A    between atoms: _281  and  _284
REMARK  125  A    between atoms: _284  and  _285
REMARK  126  A    between atoms: _285  and  _286
REMARK  127  A    between atoms: _286  and  _287
REMARK  128  A    between atoms: _287  and  _288
REMARK  129  A    between atoms: _292  and  _294
REMARK  130  A    between atoms: _294  and  _295
REMARK  131  A    between atoms: _294  and  _297
REMARK  132  A    between atoms: _297  and  _298
REMARK  133  A    between atoms: _301  and  _303
REMARK  134  A    between atoms: _303  and  _304
REMARK  135  A    between atoms: _303  and  _306
REMARK  136  A    between atoms: _308  and  _310
REMARK  137  A    between atoms: _310  and  _311
REMARK  138  A    between atoms: _310  and  _313
REMARK  139  A    between atoms: _313  and  _314
REMARK  140  A    between atoms: _320  and  _322
REMARK  141  A    between atoms: _322  and  _323
REMARK  142  A    between atoms: _322  and  _325
REMARK  143  A    between atoms: _325  and  _326
REMARK  144  A    between atoms: _326  and  _327
REMARK  145  A    between atoms: _327  and  _328
REMARK  146  A    between atoms: _328  and  _329
REMARK  147  A    between atoms: _333  and  _335
REMARK  148  A    between atoms: _335  and  _336
REMARK  149  A    between atoms: _335  and  _338
REMARK  150  A    between atoms: _338  and  _339
REMARK  151  A    between atoms: _344  and  _345
REMARK  152  A    between atoms: _347  and  _349
REMARK  153  A    between atoms: _349  and  _350
REMARK  154  A    between atoms: _352  and  _354
REMARK  155  A    between atoms: _354  and  _355
REMARK  156  A    between atoms: _354  and  _357
REMARK  157  A    between atoms: _357  and  _358
REMARK  158  A    between atoms: _363  and  _365
REMARK  159  A    between atoms: _365  and  _366
REMARK  160  A    between atoms: _365  and  _368
REMARK  161  A    between atoms: _368  and  _369
REMARK  162  A    between atoms: _372  and  _374
REMARK  163  A    between atoms: _374  and  _375
REMARK  164  A    between atoms: _374  and  _377
REMARK  165  A    between atoms: _377  and  _378
REMARK  166  A    between atoms: _378  and  _379
REMARK  167  A    between atoms: _379  and  _380
REMARK  168  A    between atoms: _389  and  _391
REMARK  169  A    between atoms: _391  and  _392
REMARK  170  A    between atoms: _395  and  _397
REMARK  171  A    between atoms: _397  and  _398
REMARK  172  A    between atoms: _397  and  _400
REMARK  173  A    between atoms: _400  and  _401
REMARK  174  A    between atoms: _404  and  _406
REMARK  175  A    between atoms: _406  and  _407
REMARK  176  A    between atoms: _406  and  _409
REMARK  177  A    between atoms: _409  and  _410
REMARK  178  A    between atoms: _410  and  _411
REMARK  179  A    between atoms: _416  and  _418
REMARK  180  A    between atoms: _418  and  _419
REMARK  181  A    between atoms: _418  and  _421
REMARK  182  A    between atoms: _424  and  _426
REMARK  183  A    between atoms: _426  and  _427
REMARK  184  A    between atoms: _426  and  _429
REMARK  185  A    between atoms: _429  and  _430
REMARK  186  A    between atoms: _433  and  _435
REMARK  187  A    between atoms: _435  and  _436
REMARK  188  A    between atoms: _435  and  _438
REMARK  189  A    between atoms: _441  and  _443
REMARK  190  A    between atoms: _443  and  _444
REMARK  191  A    between atoms: _443  and  _446
REMARK  192  A    between atoms: _446  and  _447
REMARK  193  A    between atoms: _447  and  _448
REMARK  194  A    between atoms: _450  and  _452
REMARK  195  A    between atoms: _452  and  _453
REMARK  196  A    between atoms: _452  and  _455
REMARK  197  A    between atoms: _455  and  _456
REMARK  198  A    between atoms: _458  and  _460
REMARK  199  A    between atoms: _460  and  _461
REMARK  200  A    between atoms: _463  and  _465
REMARK  201  A    between atoms: _465  and  _466
REMARK  202  A    between atoms: _468  and  _470
REMARK  203  A    between atoms: _470  and  _471
REMARK  204  A    between atoms: _473  and  _475
REMARK  205  A    between atoms: _475  and  _476
REMARK  206  A    between atoms: _478  and  _480
REMARK  207  A    between atoms: _480  and  _481
REMARK  208  A    between atoms: _483  and  _485
REMARK  209  A    between atoms: _485  and  _486
REMARK  210  A    between atoms: _485  and  _488
REMARK  211  A    between atoms: _490  and  _492
REMARK  212  A    between atoms: _492  and  _493
REMARK  213  A    between atoms: _492  and  _495
REMARK  214  A    between atoms: _495  and  _496
REMARK                            x       y       z     vdW  Elec       q    Type
REMARK                         _______ _______ _______ _____ _____    ______ ____
ROOT
ATOM      1  CA  GLU A   1      25.729  26.416  36.069  0.00  0.00    +0.134 C 
ENDROOT
BRANCH   1   2
ATOM      2  N   GLU A   1      26.148  26.956  34.782  0.00  0.00    -0.239 NA
ATOM      3  H   GLU A   1      26.685  27.847  34.760  0.00  0.00    +0.142 HD
ENDBRANCH   1   2
BRANCH   1   4
ATOM      4  C   GLU A   1      24.230  26.195  36.095  0.00  0.00    +0.224 C 
ATOM      5  O   GLU A   1      23.732  25.210  36.649  0.00  0.00    -0.287 OA
ENDBRANCH   1   4
BRANCH   1   6
ATOM      6  CB  GLU A   1      26.056  27.398  37.174  0.00  0.00    +0.037 C 
BRANCH   6   7
ATOM      7  CG  GLU A   1      27.504  27.572  37.457  0.00  0.00    +0.116 C 
BRANCH   7   8
ATOM      8  CD  GLU A   1      27.896  26.987  38.814  0.00  0.00    +0.365 C 
ATOM      9  OE2 GLU A   1      27.993  27.779  39.767  0.00  0.00    -0.246 OA
ATOM     10  OE1 GLU A   1      28.101  25.760  38.960  0.00  0.00    -0.246 OA
ENDBRANCH   7   8
ENDBRANCH   6   7
ENDBRANCH   1   6
TORSDOF 5
REMARK  Name = ../refined-set-2016/2oi2/2oi2_pocket.pdb
REMARK  214 active torsions:
REMARK  status: ('A' for Active; 'I' for Inactive)
REMARK    1  A    between atoms: _1  and  _3
REMARK    2  A    between atoms: _3  and  _4
REMARK    3  A    between atoms: _3  and  _6
REMARK    4  A    between atoms: _6  and  _7
REMARK    5  A    between atoms: _9  and  _11
REMARK    6  A    between atoms: _11  and  _12
REMARK    7  A    between atoms: _11  and  _14
REMARK    8  A    between atoms: _14  and  _15
REMARK    9  A    between atoms: _15  and  _16
REMARK   10  A    between atoms: _16  and  _17
REMARK   11  A    between atoms: _17  and  _18
REMARK   12  A    between atoms: _22  and  _24
REMARK   13  A    between atoms: _24  and  _25
REMARK   14  A    between atoms: _24  and  _27
REMARK   15  A    between atoms: _27  and  _28
REMARK   16  A    between atoms: _31  and  _33
REMARK   17  A    between atoms: _33  and  _34
REMARK   18  A    between atoms: _33  and  _36
REMARK   19  A    between atoms: _36  and  _37
REMARK   20  A    between atoms: _40  and  _42
REMARK   21  A    between atoms: _42  and  _43
REMARK   22  A    between atoms: _45  and  _47
REMARK   23  A    between atoms: _47  and  _48
REMARK   24  A    between atoms: _47  and  _50
REMARK   25  A    between atoms: _50  and  _51
REMARK   26  A    between atoms: _51  and  _52
REMARK   27  A    between atoms: _55  and  _57
REMARK   28  A    between atoms: _57  and  _58
REMARK   29  A    between atoms: _57  and  _60
REMARK   30  A    between atoms: _60  and  _61
REMARK   31  A    between atoms: _66  and  _68
REMARK   32  A    between atoms: _68  and  _69
REMARK   33  A    between atoms: _72  and  _74
REMARK   34  A    between atoms: _74  and  _75
REMARK   35  A    between atoms: _74  and  _77
REMARK   36  A    between atoms: _80  and  _82
REMARK   37  A    between atoms: _82  and  _83
REMARK   38  A    between atoms: _82  and  _85
REMARK   39  A    between atoms: _88  and  _90
REMARK   40  A    between atoms: _90  and  _91
REMARK   41  A    between atoms: _90  and  _93
REMARK   42  A    between atoms: _93  and  _94
REMARK   43  A    between atoms: _99  and  _100
REMARK   44  A    between atoms: _102  and  _104
REMARK   45  A    between atoms: _104  and  _105
REMARK   46  A    between atoms: _107  and  _109
REMARK   47  A    between atoms: _109  and  _110
REMARK   48  A    between atoms: _113  and  _115
REMARK   49  A    between atoms: _115  and  _116
REMARK   50  A    between atoms: _115  and  _118
REMARK   51  A    between atoms: _118  and  _119
REMARK   52  A    between atoms: _121  and  _123
REMARK   53  A    between atoms: _123  and  _124
REMARK   54  A    between atoms: _123  and  _126
REMARK   55  A    between atoms: _126  and  _127
REMARK   56  A    between atoms: _130  and  _132
REMARK   57  A    between atoms: _132  and  _133
REMARK   58  A    between atoms: _135  and  _137
REMARK   59  A    between atoms: _137  and  _138
REMARK   60  A    between atoms: _137  and  _140
REMARK   61  A    between atoms: _140  and  _141
REMARK   62  A    between atoms: _141  and  _142
REMARK   63  A    between atoms: _144  and  _146
REMARK   64  A    between atoms: _146  and  _147
REMARK   65  A    between atoms: _149  and  _151
REMARK   66  A    between atoms: _151  and  _152
REMARK   67  A    between atoms: _151  and  _154
REMARK   68  A    between atoms: _154  and  _155
REMARK   69  A    between atoms: _157  and  _159
REMARK   70  A    between atoms: _159  and  _160
REMARK   71  A    between atoms: _159  and  _162
REMARK   72  A    between atoms: _162  and  _163
REMARK   73  A    between atoms: _165  and  _167
REMARK   74  A    between atoms: _167  and  _168
REMARK   75  A    between atoms: _171  and  _173
REMARK   76  A    between atoms: _173  and  _174
REMARK   77  A    between atoms: _177  and  _179
REMARK   78  A    between atoms: _179  and  _180
REMARK   79  A    between atoms: _179  and  _182
REMARK   80  A    between atoms: _182  and  _183
REMARK   81  A    between atoms: _186  and  _188
REMARK   82  A    between atoms: _188  and  _189
REMARK   83  A    between atoms: _188  and  _191
REMARK   84  A    between atoms: _191  and  _192
REMARK   85  A    between atoms: _194  and  _196
REMARK   86  A    between atoms: _196  and  _197
REMARK   87  A    between atoms: _196  and  _199
REMARK   88  A    between atoms: _199  and  _200
REMARK   89  A    between atoms: _205  and  _207
REMARK   90  A    between atoms: _207  and  _208
REMARK   91  A    between atoms: _207  and  _210
REMARK   92  A    between atoms: _210  and  _211
REMARK   93  A    between atoms: _211  and  _212
REMARK   94  A    between atoms: _215  and  _217
REMARK   95  A    between atoms: _217  and  _218
REMARK   96  A    between atoms: _217  and  _220
REMARK   97  A    between atoms: _220  and  _221
REMARK   98  A    between atoms: _221  and  _222
REMARK   99  A    between atoms: _224  and  _226
REMARK  100  A    between atoms: _226  and  _227
REMARK  101  A    between atoms: _226  and  _229
REMARK  102  A    between atoms: _229  and  _230
REMARK  103  A    between atoms: _236  and  _237
REMARK  104  A    between atoms: _242  and  _244
REMARK  105  A    between atoms: _244  and  _245
REMARK  106  A    between atoms: _244  and  _247
REMARK  107  A    between atoms: _247  and  _248
REMARK  108  A    between atoms: _250  and  _252
REMARK  109  A    between atoms: _252  and  _253
REMARK  110  A    between atoms: _255  and  _257
REMARK  111  A    between atoms: _257  and  _258
REMARK  112  A    between atoms: _257  and  _260
REMARK  113  A    between atoms: _260  and  _261
REMARK  114  A    between atoms: _264  and  _266
REMARK  115  A    between atoms: _266  and  _267
REMARK  116  A    between atoms: _266  and  _269
REMARK  117  A    between atoms: _269  and  _270
REMARK  118  A    between atoms: _270  and  _272
REMARK  119  A    between atoms: _272  and  MG_501
REMARK  120  A    between atoms: _273  and  _275
REMARK  121  A    between atoms: _275  and  _276
REMARK  122  A    between atoms: _279  and  _281
REMARK  123  A    between atoms: _281  and  _282
REMARK  124  A    between atoms: _281  and  _284
REMARK  125  A    between atoms: _284  and  _285
REMARK  126  A    between atoms: _285  and  _286
REMARK  127  A    between atoms: _286  and  _287
REMARK  128  A    between atoms: _287  and  _288
REMARK  129  A    between atoms: _292  and  _294
REMARK  130  A    between atoms: _294  and  _295
REMARK  131  A    between atoms: _294  and  _297
REMARK  132  A    between atoms: _297  and  _298
REMARK  133  A    between atoms: _301  and  _303
REMARK  134  A    between atoms: _303  and  _304
REMARK  135  A    between atoms: _303  and  _306
REMARK  136  A    between atoms: _308  and  _310
REMARK  137  A    between atoms: _310  and  _311
REMARK  138  A    between atoms: _310  and  _313
REMARK  139  A    between atoms: _313  and  _314
REMARK  140  A    between atoms: _320  and  _322
REMARK  141  A    between atoms: _322  and  _323
REMARK  142  A    between atoms: _322  and  _325
REMARK  143  A    between atoms: _325  and  _326
REMARK  144  A    between atoms: _326  and  _327
REMARK  145  A    between atoms: _327  and  _328
REMARK  146  A    between atoms: _328  and  _329
REMARK  147  A    between atoms: _333  and  _335
REMARK  148  A    between atoms: _335  and  _336
REMARK  149  A    between atoms: _335  and  _338
REMARK  150  A    between atoms: _338  and  _339
REMARK  151  A    between atoms: _344  and  _345
REMARK  152  A    between atoms: _347  and  _349
REMARK  153  A    between atoms: _349  and  _350
REMARK  154  A    between atoms: _352  and  _354
REMARK  155  A    between atoms: _354  and  _355
REMARK  156  A    between atoms: _354  and  _357
REMARK  157  A    between atoms: _357  and  _358
REMARK  158  A    between atoms: _363  and  _365
REMARK  159  A    between atoms: _365  and  _366
REMARK  160  A    between atoms: _365  and  _368
REMARK  161  A    between atoms: _368  and  _369
REMARK  162  A    between atoms: _372  and  _374
REMARK  163  A    between atoms: _374  and  _375
REMARK  164  A    between atoms: _374  and  _377
REMARK  165  A    between atoms: _377  and  _378
REMARK  166  A    between atoms: _378  and  _379
REMARK  167  A    between atoms: _379  and  _380
REMARK  168  A    between atoms: _389  and  _391
REMARK  169  A    between atoms: _391  and  _392
REMARK  170  A    between atoms: _395  and  _397
REMARK  171  A    between atoms: _397  and  _398
REMARK  172  A    between atoms: _397  and  _400
REMARK  173  A    between atoms: _400  and  _401
REMARK  174  A    between atoms: _404  and  _406
REMARK  175  A    between atoms: _406  and  _407
REMARK  176  A    between atoms: _406  and  _409
REMARK  177  A    between atoms: _409  and  _410
REMARK  178  A    between atoms: _410  and  _411
REMARK  179  A    between atoms: _416  and  _418
REMARK  180  A    between atoms: _418  and  _419
REMARK  181  A    between atoms: _418  and  _421
REMARK  182  A    between atoms: _424  and  _426
REMARK  183  A    between atoms: _426  and  _427
REMARK  184  A    between atoms: _426  and  _429
REMARK  185  A    between atoms: _429  and  _430
REMARK  186  A    between atoms: _433  and  _435
REMARK  187  A    between atoms: _435  and  _436
REMARK  188  A    between atoms: _435  and  _438
REMARK  189  A    between atoms: _441  and  _443
REMARK  190  A    between atoms: _443  and  _444
REMARK  191  A    between atoms: _443  and  _446
REMARK  192  A    between atoms: _446  and  _447
REMARK  193  A    between atoms: _447  and  _448
REMARK  194  A    between atoms: _450  and  _452
REMARK  195  A    between atoms: _452  and  _453
REMARK  196  A    between atoms: _452  and  _455
REMARK  197  A    between atoms: _455  and  _456
REMARK  198  A    between atoms: _458  and  _460
REMARK  199  A    between atoms: _460  and  _461
REMARK  200  A    between atoms: _463  and  _465
REMARK  201  A    between atoms: _465  and  _466
REMARK  202  A    between atoms: _468  and  _470
REMARK  203  A    between atoms: _470  and  _471
REMARK  204  A    between atoms: _473  and  _475
REMARK  205  A    between atoms: _475  and  _476
REMARK  206  A    between atoms: _478  and  _480
REMARK  207  A    between atoms: _480  and  _481
REMARK  208  A    between atoms: _483  and  _485
REMARK  209  A    between atoms: _485  and  _486
REMARK  210  A    between atoms: _485  and  _488
REMARK  211  A    between atoms: _490  and  _492
REMARK  212  A    between atoms: _492  and  _493
REMARK  213  A    between atoms: _492  and  _495
REMARK  214  A    between atoms: _495  and  _496
REMARK                            x       y       z     vdW  Elec       q    Type
REMARK                         _______ _______ _______ _____ _____    ______ ____
ROOT
ATOM      1  C   LEU A   6      29.205  31.622  44.923  0.00  0.00    +0.000 C 
ATOM      2  O   LEU A   6      30.286  32.117  45.174  0.00  0.00    +0.000 OA
ATOM      3  N   UNK A   7      29.061  30.456  44.309  0.00  0.00    +0.000 N 
ATOM      4  H   UNK A   7      28.099  30.119  44.104  0.00  0.00    +0.000 HD
ENDROOT
BRANCH   3   5
ATOM      5  C   UNK A   7      30.176  29.634  43.912  0.00  0.00    +0.000 C 
BRANCH   5   6
ATOM      6  C   UNK A   7      30.940  30.447  42.903  0.00  0.00    +0.000 C 
ATOM      7  O   UNK A   7      32.086  30.830  43.127  0.00  0.00    +0.000 OA
ATOM      8  N   ALA A   8      30.269  30.761  41.805  0.00  0.00    +0.000 N 
ATOM      9  H   ALA A   8      29.280  30.456  41.707  0.00  0.00    +0.000 HD
BRANCH   8  10
ATOM     10  CA  ALA A   8      30.887  31.522  40.737  0.00  0.00    +0.000 C 
ATOM     11  CB  ALA A   8      29.871  31.815  39.643  0.00  0.00    +0.000 C 
BRANCH  10  12
ATOM     12  C   ALA A   8      31.498  32.811  41.227  0.00  0.00    +0.000 C 
ATOM     13  N   LYS A   9      30.739  33.538  42.022  0.00  0.00    +0.000 N 
ATOM     14  H   LYS A   9      29.800  33.187  42.297  0.00  0.00    +0.000 HD
ATOM     15  O   ALA A   8      32.631  33.138  40.910  0.00  0.00    +0.000 OA
BRANCH  13  16
ATOM     16  CA  LYS A   9      31.191  34.806  42.512  0.00  0.00    +0.000 C 
BRANCH  16  17
ATOM     17  C   LYS A   9      32.512  34.703  43.240  0.00  0.00    +0.000 C 
ATOM     18  N   THR A  10      32.598  33.771  44.184  0.00  0.00    +0.000 N 
ATOM     19  H   THR A  10      31.781  33.154  44.368  0.00  0.00    +0.000 HD
ATOM     20  O   LYS A   9      33.448  35.443  42.929  0.00  0.00    +0.000 OA
BRANCH  18  21
ATOM     21  CA  THR A  10      33.807  33.599  44.961  0.00  0.00    +0.000 C 
BRANCH  21  22
ATOM     22  C   THR A  10      34.995  33.112  44.119  0.00  0.00    +0.000 C 
ATOM     23  O   THR A  10      36.142  33.498  44.353  0.00  0.00    +0.000 OA
ATOM     24  N   CYS A  11      34.718  32.281  43.117  0.00  0.00    +0.000 N 
ATOM     25  H   CYS A  11      33.734  31.989  42.950  0.00  0.00    +0.000 HD
BRANCH  24  26
ATOM     26  CA  CYS A  11      35.777  31.773  42.249  0.00  0.00    +0.000 C 
BRANCH  26  27
ATOM     27  CB  CYS A  11      35.229  30.621  41.405  0.00  0.00    +0.000 C 
ATOM     28  SG  CYS A  11      34.901  29.125  42.358  0.00  0.00    +0.000 S 
ENDBRANCH  26  27
BRANCH  26  29
ATOM     29  C   CYS A  11      36.391  32.877  41.349  0.00  0.00    +0.000 C 
ATOM     30  O   CYS A  11      37.437  32.688  40.708  0.00  0.00    +0.000 OA
ENDBRANCH  26  29
ENDBRANCH  24  26
ENDBRANCH  21  22
BRANCH  21  31
ATOM     31  CB  THR A  10      33.553  32.649  46.101  0.00  0.00    +0.000 C 
ATOM     32  CG2 THR A  10      34.471  32.938  47.210  0.00  0.00    +0.000 C 
BRANCH  31  33
ATOM     33  OG1 THR A  10      32.222  32.862  46.592  0.00  0.00    +0.000 OA
ATOM     34  HG1 THR A  10      31.572  32.695  45.864  0.00  0.00    +0.000 HD
ENDBRANCH  31  33
ENDBRANCH  21  31
ENDBRANCH  18  21
ENDBRANCH  16  17
BRANCH  16  35
ATOM     35  CB  LYS A   9      30.131  35.389  43.410  0.00  0.00    +0.000 C 
BRANCH  35  36
ATOM     36  CG  LYS A   9      30.282  36.857  43.631  0.00  0.00    +0.000 C 
BRANCH  36  37
ATOM     37  CD  LYS A   9      29.696  37.643  42.490  0.00  0.00    +0.000 C 
BRANCH  37  38
ATOM     38  CE  LYS A   9      30.737  38.008  41.465  0.00  0.00    +0.000 C 
BRANCH  38  39
ATOM     39  NZ  LYS A   9      31.821  38.908  41.982  0.00  0.00    +0.000 N 
ATOM     40  HZ1 LYS A   9      32.316  38.437  42.766  0.00  0.00    +0.000 HD
ATOM     41  HZ2 LYS A   9      31.400  39.797  42.320  0.00  0.00    +0.000 HD
ATOM     42  HZ3 LYS A   9      32.495  39.111  41.217  0.00  0.00    +0.000 HD
ENDBRANCH  38  39
ENDBRANCH  37  38
ENDBRANCH  36  37
ENDBRANCH  35  36
ENDBRANCH  16  35
ENDBRANCH  13  16
ENDBRANCH  10  12
ENDBRANCH   8  10
ENDBRANCH   5   6
BRANCH   5  43
ATOM     43  C   UNK A   7      29.622  28.348  43.310  0.00  0.00    +0.000 C 
BRANCH  43  44
ATOM     44  C   UNK A   7      30.673  27.294  43.050  0.00  0.00    +0.000 C 
ATOM     45  O   UNK A   7      31.855  27.524  43.344  0.00  0.00    +0.000 OA
BRANCH  44  46
ATOM     46  O   UNK A   7      30.330  26.214  42.547  0.00  0.00    +0.000 OA
BRANCH  46  47
ATOM     47 MG   UNK A   7      28.520  24.865  43.017  0.00  0.00    +0.000 Mg
ATOM     48  O   UNK A   7      27.483  26.545  41.809  0.00  0.00    +0.000 OA
ENDBRANCH  46  47
ENDBRANCH  44  46
ENDBRANCH  43  44
ENDBRANCH   5  43
ENDBRANCH   3   5
BRANCH   1  49
ATOM     49  CA  LEU A   6      27.924  32.332  45.310  0.00  0.00    +0.000 C 
BRANCH  49  51
ATOM     50  C   GLY A   5      26.757  32.979  43.291  0.00  0.00    +0.000 C 
ATOM     51  N   LEU A   6      26.781  32.259  44.398  0.00  0.00    +0.000 N 
ATOM     52  H   LEU A   6      25.981  31.634  44.624  0.00  0.00    +0.000 HD
ATOM     53  O   GLY A   5      27.719  33.649  42.944  0.00  0.00    +0.000 OA
BRANCH  50  54
ATOM     54  CA  GLY A   5      25.495  32.902  42.424  0.00  0.00    +0.000 C 
BRANCH  54  57
ATOM     55  C   SER A   4      23.546  32.274  43.722  0.00  0.00    +0.000 C 
ATOM     56  O   SER A   4      23.208  33.453  43.907  0.00  0.00    +0.000 OA
ATOM     57  N   GLY A   5      24.602  31.925  42.990  0.00  0.00    +0.000 N 
ATOM     58  H   GLY A   5      24.787  30.916  42.822  0.00  0.00    +0.000 HD
BRANCH  55  59
ATOM     59  CA  SER A   4      22.754  31.101  44.300  0.00  0.00    +0.000 C 
BRANCH  59  61
ATOM     60  C   PRO A   3      22.737  29.650  42.363  0.00  0.00    +0.000 C 
ATOM     61  N   SER A   4      23.254  29.972  43.542  0.00  0.00    +0.000 N 
ATOM     62  H   SER A   4      24.033  29.403  43.930  0.00  0.00    +0.000 HD
ATOM     63  O   PRO A   3      21.778  30.246  41.857  0.00  0.00    +0.000 OA
BRANCH  60  67
ATOM     64  C   ASN A   2      21.514  26.943  41.684  0.00  0.00    +0.000 C 
ATOM     65  O   ASN A   2      21.323  27.154  42.876  0.00  0.00    +0.000 OA
ATOM     66  N   PRO A   3      22.487  27.558  41.007  0.00  0.00    +0.000 N 
ATOM     67  CA  PRO A   3      23.423  28.498  41.640  0.00  0.00    +0.000 C 
ATOM     68  CB  PRO A   3      24.250  29.042  40.457  0.00  0.00    +0.000 C 
ATOM     69  CG  PRO A   3      24.060  28.041  39.376  0.00  0.00    +0.000 C 
ATOM     70  CD  PRO A   3      22.644  27.566  39.540  0.00  0.00    +0.000 C 
BRANCH  64  71
ATOM     71  CA  ASN A   2      20.615  25.989  40.899  0.00  0.00    +0.000 C 
BRANCH  71  74
ATOM     72  C   MET A   1      22.284  24.214  40.650  0.00  0.00    +0.000 C 
ATOM     73  O   MET A   1      22.574  24.190  41.847  0.00  0.00    +0.000 OA
ATOM     74  N   ASN A   2      21.366  25.017  40.124  0.00  0.00    +0.000 N 
ATOM     75  H   ASN A   2      21.175  24.946  39.104  0.00  0.00    +0.000 HD
BRANCH  72  76
ATOM     76  CA  MET A   1      22.963  23.288  39.664  0.00  0.00    +0.000 C 
BRANCH  76  77
ATOM     77  N   MET A   1      22.282  23.237  38.390  0.00  0.00    +0.000 NA
ATOM     78  H   MET A   1      22.636  23.830  37.612  0.00  0.00    +0.000 HD
ENDBRANCH  76  77
BRANCH  76  79
ATOM     79  CB  MET A   1      24.392  23.738  39.425  0.00  0.00    +0.000 C 
BRANCH  79  80
ATOM     80  CG  MET A   1      25.179  22.746  38.616  0.00  0.00    +0.000 C 
BRANCH  80  81
ATOM     81  SD  MET A   1      25.199  21.151  39.431  0.00  0.00    +0.000 S 
ATOM     82  CE  MET A   1      26.046  21.527  40.965  0.00  0.00    +0.000 C 
ENDBRANCH  80  81
ENDBRANCH  79  80
ENDBRANCH  76  79
ENDBRANCH  72  76
ENDBRANCH  71  74
BRANCH  71  83
ATOM     83  CB  ASN A   2      19.660  25.252  41.819  0.00  0.00    +0.000 C 
BRANCH  83  84
ATOM     84  CG  ASN A   2      18.292  25.087  41.204  0.00  0.00    +0.000 C 
ATOM     85  OD1 ASN A   2      17.509  26.066  41.131  0.00  0.00    +0.000 OA
ATOM     86  ND2 ASN A   2      17.976  23.850  40.743  0.00  0.00    +0.000 N 
ATOM     87 HD21 ASN A   2      18.662  23.073  40.828  0.00  0.00    +0.000 HD
ATOM     88 HD22 ASN A   2      17.048  23.680  40.305  0.00  0.00    +0.000 HD
ENDBRANCH  83  84
ENDBRANCH  71  83
ENDBRANCH  64  71
ENDBRANCH  60  67
ENDBRANCH  59  61
BRANCH  59  89
ATOM     89  CB  SER A   4      23.118  30.905  45.745  0.00  0.00    +0.000 C 
BRANCH  89  90
ATOM     90  OG  SER A   4      24.521  30.725  45.853  0.00  0.00    +0.000 OA
ATOM     91  H   SER A   4      24.792  29.929  45.331  0.00  0.00    +0.000 HD
ENDBRANCH  89  90
ENDBRANCH  59  89
ENDBRANCH  55  59
ENDBRANCH  54  57
ENDBRANCH  50  54
ENDBRANCH  49  51
BRANCH  49  92
ATOM     92  CB  LEU A   6      27.501  31.854  46.706  0.00  0.00    +0.000 C 
BRANCH  92  93
ATOM     93  CG  LEU A   6      28.596  31.765  47.767  0.00  0.00    +0.000 C 
ATOM     94  CD2 LEU A   6      28.182  30.835  48.856  0.00  0.00    +0.000 C 
ATOM     95  CD1 LEU A   6      28.886  33.117  48.310  0.00  0.00    +0.000 C 
ENDBRANCH  92  93
ENDBRANCH  49  92
ENDBRANCH   1  49
TORSDOF 42
REMARK  Name = ../refined-set-2016/2oi2/2oi2_pocket.pdb
REMARK  214 active torsions:
REMARK  status: ('A' for Active; 'I' for Inactive)
REMARK    1  A    between atoms: _1  and  _3
REMARK    2  A    between atoms: _3  and  _4
REMARK    3  A    between atoms: _3  and  _6
REMARK    4  A    between atoms: _6  and  _7
REMARK    5  A    between atoms: _9  and  _11
REMARK    6  A    between atoms: _11  and  _12
REMARK    7  A    between atoms: _11  and  _14
REMARK    8  A    between atoms: _14  and  _15
REMARK    9  A    between atoms: _15  and  _16
REMARK   10  A    between atoms: _16  and  _17
REMARK   11  A    between atoms: _17  and  _18
REMARK   12  A    between atoms: _22  and  _24
REMARK   13  A    between atoms: _24  and  _25
REMARK   14  A    between atoms: _24  and  _27
REMARK   15  A    between atoms: _27  and  _28
REMARK   16  A    between atoms: _31  and  _33
REMARK   17  A    between atoms: _33  and  _34
REMARK   18  A    between atoms: _33  and  _36
REMARK   19  A    between atoms: _36  and  _37
REMARK   20  A    between atoms: _40  and  _42
REMARK   21  A    between atoms: _42  and  _43
REMARK   22  A    between atoms: _45  and  _47
REMARK   23  A    between atoms: _47  and  _48
REMARK   24  A    between atoms: _47  and  _50
REMARK   25  A    between atoms: _50  and  _51
REMARK   26  A    between atoms: _51  and  _52
REMARK   27  A    between atoms: _55  and  _57
REMARK   28  A    between atoms: _57  and  _58
REMARK   29  A    between atoms: _57  and  _60
REMARK   30  A    between atoms: _60  and  _61
REMARK   31  A    between atoms: _66  and  _68
REMARK   32  A    between atoms: _68  and  _69
REMARK   33  A    between atoms: _72  and  _74
REMARK   34  A    between atoms: _74  and  _75
REMARK   35  A    between atoms: _74  and  _77
REMARK   36  A    between atoms: _80  and  _82
REMARK   37  A    between atoms: _82  and  _83
REMARK   38  A    between atoms: _82  and  _85
REMARK   39  A    between atoms: _88  and  _90
REMARK   40  A    between atoms: _90  and  _91
REMARK   41  A    between atoms: _90  and  _93
REMARK   42  A    between atoms: _93  and  _94
REMARK   43  A    between atoms: _99  and  _100
REMARK   44  A    between atoms: _102  and  _104
REMARK   45  A    between atoms: _104  and  _105
REMARK   46  A    between atoms: _107  and  _109
REMARK   47  A    between atoms: _109  and  _110
REMARK   48  A    between atoms: _113  and  _115
REMARK   49  A    between atoms: _115  and  _116
REMARK   50  A    between atoms: _115  and  _118
REMARK   51  A    between atoms: _118  and  _119
REMARK   52  A    between atoms: _121  and  _123
REMARK   53  A    between atoms: _123  and  _124
REMARK   54  A    between atoms: _123  and  _126
REMARK   55  A    between atoms: _126  and  _127
REMARK   56  A    between atoms: _130  and  _132
REMARK   57  A    between atoms: _132  and  _133
REMARK   58  A    between atoms: _135  and  _137
REMARK   59  A    between atoms: _137  and  _138
REMARK   60  A    between atoms: _137  and  _140
REMARK   61  A    between atoms: _140  and  _141
REMARK   62  A    between atoms: _141  and  _142
REMARK   63  A    between atoms: _144  and  _146
REMARK   64  A    between atoms: _146  and  _147
REMARK   65  A    between atoms: _149  and  _151
REMARK   66  A    between atoms: _151  and  _152
REMARK   67  A    between atoms: _151  and  _154
REMARK   68  A    between atoms: _154  and  _155
REMARK   69  A    between atoms: _157  and  _159
REMARK   70  A    between atoms: _159  and  _160
REMARK   71  A    between atoms: _159  and  _162
REMARK   72  A    between atoms: _162  and  _163
REMARK   73  A    between atoms: _165  and  _167
REMARK   74  A    between atoms: _167  and  _168
REMARK   75  A    between atoms: _171  and  _173
REMARK   76  A    between atoms: _173  and  _174
REMARK   77  A    between atoms: _177  and  _179
REMARK   78  A    between atoms: _179  and  _180
REMARK   79  A    between atoms: _179  and  _182
REMARK   80  A    between atoms: _182  and  _183
REMARK   81  A    between atoms: _186  and  _188
REMARK   82  A    between atoms: _188  and  _189
REMARK   83  A    between atoms: _188  and  _191
REMARK   84  A    between atoms: _191  and  _192
REMARK   85  A    between atoms: _194  and  _196
REMARK   86  A    between atoms: _196  and  _197
REMARK   87  A    between atoms: _196  and  _199
REMARK   88  A    between atoms: _199  and  _200
REMARK   89  A    between atoms: _205  and  _207
REMARK   90  A    between atoms: _207  and  _208
REMARK   91  A    between atoms: _207  and  _210
REMARK   92  A    between atoms: _210  and  _211
REMARK   93  A    between atoms: _211  and  _212
REMARK   94  A    between atoms: _215  and  _217
REMARK   95  A    between atoms: _217  and  _218
REMARK   96  A    between atoms: _217  and  _220
REMARK   97  A    between atoms: _220  and  _221
REMARK   98  A    between atoms: _221  and  _222
REMARK   99  A    between atoms: _224  and  _226
REMARK  100  A    between atoms: _226  and  _227
REMARK  101  A    between atoms: _226  and  _229
REMARK  102  A    between atoms: _229  and  _230
REMARK  103  A    between atoms: _236  and  _237
REMARK  104  A    between atoms: _242  and  _244
REMARK  105  A    between atoms: _244  and  _245
REMARK  106  A    between atoms: _244  and  _247
REMARK  107  A    between atoms: _247  and  _248
REMARK  108  A    between atoms: _250  and  _252
REMARK  109  A    between atoms: _252  and  _253
REMARK  110  A    between atoms: _255  and  _257
REMARK  111  A    between atoms: _257  and  _258
REMARK  112  A    between atoms: _257  and  _260
REMARK  113  A    between atoms: _260  and  _261
REMARK  114  A    between atoms: _264  and  _266
REMARK  115  A    between atoms: _266  and  _267
REMARK  116  A    between atoms: _266  and  _269
REMARK  117  A    between atoms: _269  and  _270
REMARK  118  A    between atoms: _270  and  _272
REMARK  119  A    between atoms: _272  and  MG_501
REMARK  120  A    between atoms: _273  and  _275
REMARK  121  A    between atoms: _275  and  _276
REMARK  122  A    between atoms: _279  and  _281
REMARK  123  A    between atoms: _281  and  _282
REMARK  124  A    between atoms: _281  and  _284
REMARK  125  A    between atoms: _284  and  _285
REMARK  126  A    between atoms: _285  and  _286
REMARK  127  A    between atoms: _286  and  _287
REMARK  128  A    between atoms: _287  and  _288
REMARK  129  A    between atoms: _292  and  _294
REMARK  130  A    between atoms: _294  and  _295
REMARK  131  A    between atoms: _294  and  _297
REMARK  132  A    between atoms: _297  and  _298
REMARK  133  A    between atoms: _301  and  _303
REMARK  134  A    between atoms: _303  and  _304
REMARK  135  A    between atoms: _303  and  _306
REMARK  136  A    between atoms: _308  and  _310
REMARK  137  A    between atoms: _310  and  _311
REMARK  138  A    between atoms: _310  and  _313
REMARK  139  A    between atoms: _313  and  _314
REMARK  140  A    between atoms: _320  and  _322
REMARK  141  A    between atoms: _322  and  _323
REMARK  142  A    between atoms: _322  and  _325
REMARK  143  A    between atoms: _325  and  _326
REMARK  144  A    between atoms: _326  and  _327
REMARK  145  A    between atoms: _327  and  _328
REMARK  146  A    between atoms: _328  and  _329
REMARK  147  A    between atoms: _333  and  _335
REMARK  148  A    between atoms: _335  and  _336
REMARK  149  A    between atoms: _335  and  _338
REMARK  150  A    between atoms: _338  and  _339
REMARK  151  A    between atoms: _344  and  _345
REMARK  152  A    between atoms: _347  and  _349
REMARK  153  A    between atoms: _349  and  _350
REMARK  154  A    between atoms: _352  and  _354
REMARK  155  A    between atoms: _354  and  _355
REMARK  156  A    between atoms: _354  and  _357
REMARK  157  A    between atoms: _357  and  _358
REMARK  158  A    between atoms: _363  and  _365
REMARK  159  A    between atoms: _365  and  _366
REMARK  160  A    between atoms: _365  and  _368
REMARK  161  A    between atoms: _368  and  _369
REMARK  162  A    between atoms: _372  and  _374
REMARK  163  A    between atoms: _374  and  _375
REMARK  164  A    between atoms: _374  and  _377
REMARK  165  A    between atoms: _377  and  _378
REMARK  166  A    between atoms: _378  and  _379
REMARK  167  A    between atoms: _379  and  _380
REMARK  168  A    between atoms: _389  and  _391
REMARK  169  A    between atoms: _391  and  _392
REMARK  170  A    between atoms: _395  and  _397
REMARK  171  A    between atoms: _397  and  _398
REMARK  172  A    between atoms: _397  and  _400
REMARK  173  A    between atoms: _400  and  _401
REMARK  174  A    between atoms: _404  and  _406
REMARK  175  A    between atoms: _406  and  _407
REMARK  176  A    between atoms: _406  and  _409
REMARK  177  A    between atoms: _409  and  _410
REMARK  178  A    between atoms: _410  and  _411
REMARK  179  A    between atoms: _416  and  _418
REMARK  180  A    between atoms: _418  and  _419
REMARK  181  A    between atoms: _418  and  _421
REMARK  182  A    between atoms: _424  and  _426
REMARK  183  A    between atoms: _426  and  _427
REMARK  184  A    between atoms: _426  and  _429
REMARK  185  A    between atoms: _429  and  _430
REMARK  186  A    between atoms: _433  and  _435
REMARK  187  A    between atoms: _435  and  _436
REMARK  188  A    between atoms: _435  and  _438
REMARK  189  A    between atoms: _441  and  _443
REMARK  190  A    between atoms: _443  and  _444
REMARK  191  A    between atoms: _443  and  _446
REMARK  192  A    between atoms: _446  and  _447
REMARK  193  A    between atoms: _447  and  _448
REMARK  194  A    between atoms: _450  and  _452
REMARK  195  A    between atoms: _452  and  _453
REMARK  196  A    between atoms: _452  and  _455
REMARK  197  A    between atoms: _455  and  _456
REMARK  198  A    between atoms: _458  and  _460
REMARK  199  A    between atoms: _460  and  _461
REMARK  200  A    between atoms: _463  and  _465
REMARK  201  A    between atoms: _465  and  _466
REMARK  202  A    between atoms: _468  and  _470
REMARK  203  A    between atoms: _470  and  _471
REMARK  204  A    between atoms: _473  and  _475
REMARK  205  A    between atoms: _475  and  _476
REMARK  206  A    between atoms: _478  and  _480
REMARK  207  A    between atoms: _480  and  _481
REMARK  208  A    between atoms: _483  and  _485
REMARK  209  A    between atoms: _485  and  _486
REMARK  210  A    between atoms: _485  and  _488
REMARK  211  A    between atoms: _490  and  _492
REMARK  212  A    between atoms: _492  and  _493
REMARK  213  A    between atoms: _492  and  _495
REMARK  214  A    between atoms: _495  and  _496
REMARK                            x       y       z     vdW  Elec       q    Type
REMARK                         _______ _______ _______ _____ _____    ______ ____
ROOT
ATOM      1  CB  PHE A   1      27.392  36.071  48.980  0.00  0.00    +0.051 C 
ENDROOT
BRANCH   1   2
ATOM      2  CG  PHE A   1      26.658  35.844  47.686  0.00  0.00    -0.020 A 
ATOM      3  CD2 PHE A   1      25.519  35.068  47.640  0.00  0.00    -0.004 A 
ATOM      4  CE2 PHE A   1      24.859  34.860  46.463  0.00  0.00    -0.000 A 
ATOM      5  CZ  PHE A   1      25.323  35.425  45.303  0.00  0.00    -0.000 A 
ATOM      6  CE1 PHE A   1      26.453  36.197  45.324  0.00  0.00    -0.000 A 
ATOM      7  CD1 PHE A   1      27.118  36.405  46.507  0.00  0.00    -0.004 A 
ENDBRANCH   1   2
BRANCH   1   8
ATOM      8  CA  PHE A   1      26.798  37.176  49.887  0.00  0.00    +0.137 C 
BRANCH   8   9
ATOM      9  N   PHE A   1      27.677  37.303  51.054  0.00  0.00    -0.239 NA
ATOM     10  H   PHE A   1      27.581  36.632  51.843  0.00  0.00    +0.142 HD
ENDBRANCH   8   9
BRANCH   8  11
ATOM     11  C   PHE A   1      25.324  36.890  50.162  0.00  0.00    +0.224 C 
ATOM     12  O   PHE A   1      24.957  36.183  51.104  0.00  0.00    -0.287 OA
ENDBRANCH   8  11
ENDBRANCH   1   8
TORSDOF 4
REMARK  Name = ../refined-set-2016/2oi2/2oi2_pocket.pdb
REMARK  214 active torsions:
REMARK  status: ('A' for Active; 'I' for Inactive)
REMARK    1  A    between atoms: _1  and  _3
REMARK    2  A    between atoms: _3  and  _4
REMARK    3  A    between atoms: _3  and  _6
REMARK    4  A    between atoms: _6  and  _7
REMARK    5  A    between atoms: _9  and  _11
REMARK    6  A    between atoms: _11  and  _12
REMARK    7  A    between atoms: _11  and  _14
REMARK    8  A    between atoms: _14  and  _15
REMARK    9  A    between atoms: _15  and  _16
REMARK   10  A    between atoms: _16  and  _17
REMARK   11  A    between atoms: _17  and  _18
REMARK   12  A    between atoms: _22  and  _24
REMARK   13  A    between atoms: _24  and  _25
REMARK   14  A    between atoms: _24  and  _27
REMARK   15  A    between atoms: _27  and  _28
REMARK   16  A    between atoms: _31  and  _33
REMARK   17  A    between atoms: _33  and  _34
REMARK   18  A    between atoms: _33  and  _36
REMARK   19  A    between atoms: _36  and  _37
REMARK   20  A    between atoms: _40  and  _42
REMARK   21  A    between atoms: _42  and  _43
REMARK   22  A    between atoms: _45  and  _47
REMARK   23  A    between atoms: _47  and  _48
REMARK   24  A    between atoms: _47  and  _50
REMARK   25  A    between atoms: _50  and  _51
REMARK   26  A    between atoms: _51  and  _52
REMARK   27  A    between atoms: _55  and  _57
REMARK   28  A    between atoms: _57  and  _58
REMARK   29  A    between atoms: _57  and  _60
REMARK   30  A    between atoms: _60  and  _61
REMARK   31  A    between atoms: _66  and  _68
REMARK   32  A    between atoms: _68  and  _69
REMARK   33  A    between atoms: _72  and  _74
REMARK   34  A    between atoms: _74  and  _75
REMARK   35  A    between atoms: _74  and  _77
REMARK   36  A    between atoms: _80  and  _82
REMARK   37  A    between atoms: _82  and  _83
REMARK   38  A    between atoms: _82  and  _85
REMARK   39  A    between atoms: _88  and  _90
REMARK   40  A    between atoms: _90  and  _91
REMARK   41  A    between atoms: _90  and  _93
REMARK   42  A    between atoms: _93  and  _94
REMARK   43  A    between atoms: _99  and  _100
REMARK   44  A    between atoms: _102  and  _104
REMARK   45  A    between atoms: _104  and  _105
REMARK   46  A    between atoms: _107  and  _109
REMARK   47  A    between atoms: _109  and  _110
REMARK   48  A    between atoms: _113  and  _115
REMARK   49  A    between atoms: _115  and  _116
REMARK   50  A    between atoms: _115  and  _118
REMARK   51  A    between atoms: _118  and  _119
REMARK   52  A    between atoms: _121  and  _123
REMARK   53  A    between atoms: _123  and  _124
REMARK   54  A    between atoms: _123  and  _126
REMARK   55  A    between atoms: _126  and  _127
REMARK   56  A    between atoms: _130  and  _132
REMARK   57  A    between atoms: _132  and  _133
REMARK   58  A    between atoms: _135  and  _137
REMARK   59  A    between atoms: _137  and  _138
REMARK   60  A    between atoms: _137  and  _140
REMARK   61  A    between atoms: _140  and  _141
REMARK   62  A    between atoms: _141  and  _142
REMARK   63  A    between atoms: _144  and  _146
REMARK   64  A    between atoms: _146  and  _147
REMARK   65  A    between atoms: _149  and  _151
REMARK   66  A    between atoms: _151  and  _152
REMARK   67  A    between atoms: _151  and  _154
REMARK   68  A    between atoms: _154  and  _155
REMARK   69  A    between atoms: _157  and  _159
REMARK   70  A    between atoms: _159  and  _160
REMARK   71  A    between atoms: _159  and  _162
REMARK   72  A    between atoms: _162  and  _163
REMARK   73  A    between atoms: _165  and  _167
REMARK   74  A    between atoms: _167  and  _168
REMARK   75  A    between atoms: _171  and  _173
REMARK   76  A    between atoms: _173  and  _174
REMARK   77  A    between atoms: _177  and  _179
REMARK   78  A    between atoms: _179  and  _180
REMARK   79  A    between atoms: _179  and  _182
REMARK   80  A    between atoms: _182  and  _183
REMARK   81  A    between atoms: _186  and  _188
REMARK   82  A    between atoms: _188  and  _189
REMARK   83  A    between atoms: _188  and  _191
REMARK   84  A    between atoms: _191  and  _192
REMARK   85  A    between atoms: _194  and  _196
REMARK   86  A    between atoms: _196  and  _197
REMARK   87  A    between atoms: _196  and  _199
REMARK   88  A    between atoms: _199  and  _200
REMARK   89  A    between atoms: _205  and  _207
REMARK   90  A    between atoms: _207  and  _208
REMARK   91  A    between atoms: _207  and  _210
REMARK   92  A    between atoms: _210  and  _211
REMARK   93  A    between atoms: _211  and  _212
REMARK   94  A    between atoms: _215  and  _217
REMARK   95  A    between atoms: _217  and  _218
REMARK   96  A    between atoms: _217  and  _220
REMARK   97  A    between atoms: _220  and  _221
REMARK   98  A    between atoms: _221  and  _222
REMARK   99  A    between atoms: _224  and  _226
REMARK  100  A    between atoms: _226  and  _227
REMARK  101  A    between atoms: _226  and  _229
REMARK  102  A    between atoms: _229  and  _230
REMARK  103  A    between atoms: _236  and  _237
REMARK  104  A    between atoms: _242  and  _244
REMARK  105  A    between atoms: _244  and  _245
REMARK  106  A    between atoms: _244  and  _247
REMARK  107  A    between atoms: _247  and  _248
REMARK  108  A    between atoms: _250  and  _252
REMARK  109  A    between atoms: _252  and  _253
REMARK  110  A    between atoms: _255  and  _257
REMARK  111  A    between atoms: _257  and  _258
REMARK  112  A    between atoms: _257  and  _260
REMARK  113  A    between atoms: _260  and  _261
REMARK  114  A    between atoms: _264  and  _266
REMARK  115  A    between atoms: _266  and  _267
REMARK  116  A    between atoms: _266  and  _269
REMARK  117  A    between atoms: _269  and  _270
REMARK  118  A    between atoms: _270  and  _272
REMARK  119  A    between atoms: _272  and  MG_501
REMARK  120  A    between atoms: _273  and  _275
REMARK  121  A    between atoms: _275  and  _276
REMARK  122  A    between atoms: _279  and  _281
REMARK  123  A    between atoms: _281  and  _282
REMARK  124  A    between atoms: _281  and  _284
REMARK  125  A    between atoms: _284  and  _285
REMARK  126  A    between atoms: _285  and  _286
REMARK  127  A    between atoms: _286  and  _287
REMARK  128  A    between atoms: _287  and  _288
REMARK  129  A    between atoms: _292  and  _294
REMARK  130  A    between atoms: _294  and  _295
REMARK  131  A    between atoms: _294  and  _297
REMARK  132  A    between atoms: _297  and  _298
REMARK  133  A    between atoms: _301  and  _303
REMARK  134  A    between atoms: _303  and  _304
REMARK  135  A    between atoms: _303  and  _306
REMARK  136  A    between atoms: _308  and  _310
REMARK  137  A    between atoms: _310  and  _311
REMARK  138  A    between atoms: _310  and  _313
REMARK  139  A    between atoms: _313  and  _314
REMARK  140  A    between atoms: _320  and  _322
REMARK  141  A    between atoms: _322  and  _323
REMARK  142  A    between atoms: _322  and  _325
REMARK  143  A    between atoms: _325  and  _326
REMARK  144  A    between atoms: _326  and  _327
REMARK  145  A    between atoms: _327  and  _328
REMARK  146  A    between atoms: _328  and  _329
REMARK  147  A    between atoms: _333  and  _335
REMARK  148  A    between atoms: _335  and  _336
REMARK  149  A    between atoms: _335  and  _338
REMARK  150  A    between atoms: _338  and  _339
REMARK  151  A    between atoms: _344  and  _345
REMARK  152  A    between atoms: _347  and  _349
REMARK  153  A    between atoms: _349  and  _350
REMARK  154  A    between atoms: _352  and  _354
REMARK  155  A    between atoms: _354  and  _355
REMARK  156  A    between atoms: _354  and  _357
REMARK  157  A    between atoms: _357  and  _358
REMARK  158  A    between atoms: _363  and  _365
REMARK  159  A    between atoms: _365  and  _366
REMARK  160  A    between atoms: _365  and  _368
REMARK  161  A    between atoms: _368  and  _369
REMARK  162  A    between atoms: _372  and  _374
REMARK  163  A    between atoms: _374  and  _375
REMARK  164  A    between atoms: _374  and  _377
REMARK  165  A    between atoms: _377  and  _378
REMARK  166  A    between atoms: _378  and  _379
REMARK  167  A    between atoms: _379  and  _380
REMARK  168  A    between atoms: _389  and  _391
REMARK  169  A    between atoms: _391  and  _392
REMARK  170  A    between atoms: _395  and  _397
REMARK  171  A    between atoms: _397  and  _398
REMARK  172  A    between atoms: _397  and  _400
REMARK  173  A    between atoms: _400  and  _401
REMARK  174  A    between atoms: _404  and  _406
REMARK  175  A    between atoms: _406  and  _407
REMARK  176  A    between atoms: _406  and  _409
REMARK  177  A    between atoms: _409  and  _410
REMARK  178  A    between atoms: _410  and  _411
REMARK  179  A    between atoms: _416  and  _418
REMARK  180  A    between atoms: _418  and  _419
REMARK  181  A    between atoms: _418  and  _421
REMARK  182  A    between atoms: _424  and  _426
REMARK  183  A    between atoms: _426  and  _427
REMARK  184  A    between atoms: _426  and  _429
REMARK  185  A    between atoms: _429  and  _430
REMARK  186  A    between atoms: _433  and  _435
REMARK  187  A    between atoms: _435  and  _436
REMARK  188  A    between atoms: _435  and  _438
REMARK  189  A    between atoms: _441  and  _443
REMARK  190  A    between atoms: _443  and  _444
REMARK  191  A    between atoms: _443  and  _446
REMARK  192  A    between atoms: _446  and  _447
REMARK  193  A    between atoms: _447  and  _448
REMARK  194  A    between atoms: _450  and  _452
REMARK  195  A    between atoms: _452  and  _453
REMARK  196  A    between atoms: _452  and  _455
REMARK  197  A    between atoms: _455  and  _456
REMARK  198  A    between atoms: _458  and  _460
REMARK  199  A    between atoms: _460  and  _461
REMARK  200  A    between atoms: _463  and  _465
REMARK  201  A    between atoms: _465  and  _466
REMARK  202  A    between atoms: _468  and  _470
REMARK  203  A    between atoms: _470  and  _471
REMARK  204  A    between atoms: _473  and  _475
REMARK  205  A    between atoms: _475  and  _476
REMARK  206  A    between atoms: _478  and  _480
REMARK  207  A    between atoms: _480  and  _481
REMARK  208  A    between atoms: _483  and  _485
REMARK  209  A    between atoms: _485  and  _486
REMARK  210  A    between atoms: _485  and  _488
REMARK  211  A    between atoms: _490  and  _492
REMARK  212  A    between atoms: _492  and  _493
REMARK  213  A    between atoms: _492  and  _495
REMARK  214  A    between atoms: _495  and  _496
REMARK                            x       y       z     vdW  Elec       q    Type
REMARK                         _______ _______ _______ _____ _____    ______ ____
ROOT
ATOM      1  CG  LYS A   1      20.201  33.809  45.181  0.00  0.00    -0.000 C 
ENDROOT
BRANCH   1   2
ATOM      2  CB  LYS A   1      20.596  34.455  46.462  0.00  0.00    +0.025 C 
BRANCH   2   3
ATOM      3  CA  LYS A   1      21.359  35.761  46.371  0.00  0.00    +0.133 C 
BRANCH   3   4
ATOM      4  N   LYS A   1      21.861  36.045  47.690  0.00  0.00    -0.239 NA
ATOM      5  H   LYS A   1      21.641  35.383  48.461  0.00  0.00    +0.142 HD
ENDBRANCH   3   4
BRANCH   3   6
ATOM      6  C   LYS A   1      20.464  36.875  45.822  0.00  0.00    +0.224 C 
ATOM      7  O   LYS A   1      19.637  37.432  46.536  0.00  0.00    -0.287 OA
ENDBRANCH   3   6
ENDBRANCH   2   3
ENDBRANCH   1   2
BRANCH   1   8
ATOM      8  CD  LYS A   1      19.395  32.564  45.519  0.00  0.00    -0.024 C 
BRANCH   8   9
ATOM      9  CE  LYS A   1      18.530  32.102  44.336  0.00  0.00    -0.086 C 
BRANCH   9  10
ATOM     10  NZ  LYS A   1      17.691  30.928  44.701  0.00  0.00    +0.380 N 
ATOM     11  HZ1 LYS A   1      17.063  31.184  45.489  0.00  0.00    -0.089 HD
ATOM     12  HZ2 LYS A   1      18.306  30.140  44.988  0.00  0.00    -0.089 HD
ATOM     13  HZ3 LYS A   1      17.120  30.643  43.880  0.00  0.00    -0.089 HD
ENDBRANCH   9  10
ENDBRANCH   8   9
ENDBRANCH   1   8
TORSDOF 7
REMARK  Name = ../refined-set-2016/2oi2/2oi2_pocket.pdb
REMARK  214 active torsions:
REMARK  status: ('A' for Active; 'I' for Inactive)
REMARK    1  A    between atoms: _1  and  _3
REMARK    2  A    between atoms: _3  and  _4
REMARK    3  A    between atoms: _3  and  _6
REMARK    4  A    between atoms: _6  and  _7
REMARK    5  A    between atoms: _9  and  _11
REMARK    6  A    between atoms: _11  and  _12
REMARK    7  A    between atoms: _11  and  _14
REMARK    8  A    between atoms: _14  and  _15
REMARK    9  A    between atoms: _15  and  _16
REMARK   10  A    between atoms: _16  and  _17
REMARK   11  A    between atoms: _17  and  _18
REMARK   12  A    between atoms: _22  and  _24
REMARK   13  A    between atoms: _24  and  _25
REMARK   14  A    between atoms: _24  and  _27
REMARK   15  A    between atoms: _27  and  _28
REMARK   16  A    between atoms: _31  and  _33
REMARK   17  A    between atoms: _33  and  _34
REMARK   18  A    between atoms: _33  and  _36
REMARK   19  A    between atoms: _36  and  _37
REMARK   20  A    between atoms: _40  and  _42
REMARK   21  A    between atoms: _42  and  _43
REMARK   22  A    between atoms: _45  and  _47
REMARK   23  A    between atoms: _47  and  _48
REMARK   24  A    between atoms: _47  and  _50
REMARK   25  A    between atoms: _50  and  _51
REMARK   26  A    between atoms: _51  and  _52
REMARK   27  A    between atoms: _55  and  _57
REMARK   28  A    between atoms: _57  and  _58
REMARK   29  A    between atoms: _57  and  _60
REMARK   30  A    between atoms: _60  and  _61
REMARK   31  A    between atoms: _66  and  _68
REMARK   32  A    between atoms: _68  and  _69
REMARK   33  A    between atoms: _72  and  _74
REMARK   34  A    between atoms: _74  and  _75
REMARK   35  A    between atoms: _74  and  _77
REMARK   36  A    between atoms: _80  and  _82
REMARK   37  A    between atoms: _82  and  _83
REMARK   38  A    between atoms: _82  and  _85
REMARK   39  A    between atoms: _88  and  _90
REMARK   40  A    between atoms: _90  and  _91
REMARK   41  A    between atoms: _90  and  _93
REMARK   42  A    between atoms: _93  and  _94
REMARK   43  A    between atoms: _99  and  _100
REMARK   44  A    between atoms: _102  and  _104
REMARK   45  A    between atoms: _104  and  _105
REMARK   46  A    between atoms: _107  and  _109
REMARK   47  A    between atoms: _109  and  _110
REMARK   48  A    between atoms: _113  and  _115
REMARK   49  A    between atoms: _115  and  _116
REMARK   50  A    between atoms: _115  and  _118
REMARK   51  A    between atoms: _118  and  _119
REMARK   52  A    between atoms: _121  and  _123
REMARK   53  A    between atoms: _123  and  _124
REMARK   54  A    between atoms: _123  and  _126
REMARK   55  A    between atoms: _126  and  _127
REMARK   56  A    between atoms: _130  and  _132
REMARK   57  A    between atoms: _132  and  _133
REMARK   58  A    between atoms: _135  and  _137
REMARK   59  A    between atoms: _137  and  _138
REMARK   60  A    between atoms: _137  and  _140
REMARK   61  A    between atoms: _140  and  _141
REMARK   62  A    between atoms: _141  and  _142
REMARK   63  A    between atoms: _144  and  _146
REMARK   64  A    between atoms: _146  and  _147
REMARK   65  A    between atoms: _149  and  _151
REMARK   66  A    between atoms: _151  and  _152
REMARK   67  A    between atoms: _151  and  _154
REMARK   68  A    between atoms: _154  and  _155
REMARK   69  A    between atoms: _157  and  _159
REMARK   70  A    between atoms: _159  and  _160
REMARK   71  A    between atoms: _159  and  _162
REMARK   72  A    between atoms: _162  and  _163
REMARK   73  A    between atoms: _165  and  _167
REMARK   74  A    between atoms: _167  and  _168
REMARK   75  A    between atoms: _171  and  _173
REMARK   76  A    between atoms: _173  and  _174
REMARK   77  A    between atoms: _177  and  _179
REMARK   78  A    between atoms: _179  and  _180
REMARK   79  A    between atoms: _179  and  _182
REMARK   80  A    between atoms: _182  and  _183
REMARK   81  A    between atoms: _186  and  _188
REMARK   82  A    between atoms: _188  and  _189
REMARK   83  A    between atoms: _188  and  _191
REMARK   84  A    between atoms: _191  and  _192
REMARK   85  A    between atoms: _194  and  _196
REMARK   86  A    between atoms: _196  and  _197
REMARK   87  A    between atoms: _196  and  _199
REMARK   88  A    between atoms: _199  and  _200
REMARK   89  A    between atoms: _205  and  _207
REMARK   90  A    between atoms: _207  and  _208
REMARK   91  A    between atoms: _207  and  _210
REMARK   92  A    between atoms: _210  and  _211
REMARK   93  A    between atoms: _211  and  _212
REMARK   94  A    between atoms: _215  and  _217
REMARK   95  A    between atoms: _217  and  _218
REMARK   96  A    between atoms: _217  and  _220
REMARK   97  A    between atoms: _220  and  _221
REMARK   98  A    between atoms: _221  and  _222
REMARK   99  A    between atoms: _224  and  _226
REMARK  100  A    between atoms: _226  and  _227
REMARK  101  A    between atoms: _226  and  _229
REMARK  102  A    between atoms: _229  and  _230
REMARK  103  A    between atoms: _236  and  _237
REMARK  104  A    between atoms: _242  and  _244
REMARK  105  A    between atoms: _244  and  _245
REMARK  106  A    between atoms: _244  and  _247
REMARK  107  A    between atoms: _247  and  _248
REMARK  108  A    between atoms: _250  and  _252
REMARK  109  A    between atoms: _252  and  _253
REMARK  110  A    between atoms: _255  and  _257
REMARK  111  A    between atoms: _257  and  _258
REMARK  112  A    between atoms: _257  and  _260
REMARK  113  A    between atoms: _260  and  _261
REMARK  114  A    between atoms: _264  and  _266
REMARK  115  A    between atoms: _266  and  _267
REMARK  116  A    between atoms: _266  and  _269
REMARK  117  A    between atoms: _269  and  _270
REMARK  118  A    between atoms: _270  and  _272
REMARK  119  A    between atoms: _272  and  MG_501
REMARK  120  A    between atoms: _273  and  _275
REMARK  121  A    between atoms: _275  and  _276
REMARK  122  A    between atoms: _279  and  _281
REMARK  123  A    between atoms: _281  and  _282
REMARK  124  A    between atoms: _281  and  _284
REMARK  125  A    between atoms: _284  and  _285
REMARK  126  A    between atoms: _285  and  _286
REMARK  127  A    between atoms: _286  and  _287
REMARK  128  A    between atoms: _287  and  _288
REMARK  129  A    between atoms: _292  and  _294
REMARK  130  A    between atoms: _294  and  _295
REMARK  131  A    between atoms: _294  and  _297
REMARK  132  A    between atoms: _297  and  _298
REMARK  133  A    between atoms: _301  and  _303
REMARK  134  A    between atoms: _303  and  _304
REMARK  135  A    between atoms: _303  and  _306
REMARK  136  A    between atoms: _308  and  _310
REMARK  137  A    between atoms: _310  and  _311
REMARK  138  A    between atoms: _310  and  _313
REMARK  139  A    between atoms: _313  and  _314
REMARK  140  A    between atoms: _320  and  _322
REMARK  141  A    between atoms: _322  and  _323
REMARK  142  A    between atoms: _322  and  _325
REMARK  143  A    between atoms: _325  and  _326
REMARK  144  A    between atoms: _326  and  _327
REMARK  145  A    between atoms: _327  and  _328
REMARK  146  A    between atoms: _328  and  _329
REMARK  147  A    between atoms: _333  and  _335
REMARK  148  A    between atoms: _335  and  _336
REMARK  149  A    between atoms: _335  and  _338
REMARK  150  A    between atoms: _338  and  _339
REMARK  151  A    between atoms: _344  and  _345
REMARK  152  A    between atoms: _347  and  _349
REMARK  153  A    between atoms: _349  and  _350
REMARK  154  A    between atoms: _352  and  _354
REMARK  155  A    between atoms: _354  and  _355
REMARK  156  A    between atoms: _354  and  _357
REMARK  157  A    between atoms: _357  and  _358
REMARK  158  A    between atoms: _363  and  _365
REMARK  159  A    between atoms: _365  and  _366
REMARK  160  A    between atoms: _365  and  _368
REMARK  161  A    between atoms: _368  and  _369
REMARK  162  A    between atoms: _372  and  _374
REMARK  163  A    between atoms: _374  and  _375
REMARK  164  A    between atoms: _374  and  _377
REMARK  165  A    between atoms: _377  and  _378
REMARK  166  A    between atoms: _378  and  _379
REMARK  167  A    between atoms: _379  and  _380
REMARK  168  A    between atoms: _389  and  _391
REMARK  169  A    between atoms: _391  and  _392
REMARK  170  A    between atoms: _395  and  _397
REMARK  171  A    between atoms: _397  and  _398
REMARK  172  A    between atoms: _397  and  _400
REMARK  173  A    between atoms: _400  and  _401
REMARK  174  A    between atoms: _404  and  _406
REMARK  175  A    between atoms: _406  and  _407
REMARK  176  A    between atoms: _406  and  _409
REMARK  177  A    between atoms: _409  and  _410
REMARK  178  A    between atoms: _410  and  _411
REMARK  179  A    between atoms: _416  and  _418
REMARK  180  A    between atoms: _418  and  _419
REMARK  181  A    between atoms: _418  and  _421
REMARK  182  A    between atoms: _424  and  _426
REMARK  183  A    between atoms: _426  and  _427
REMARK  184  A    between atoms: _426  and  _429
REMARK  185  A    between atoms: _429  and  _430
REMARK  186  A    between atoms: _433  and  _435
REMARK  187  A    between atoms: _435  and  _436
REMARK  188  A    between atoms: _435  and  _438
REMARK  189  A    between atoms: _441  and  _443
REMARK  190  A    between atoms: _443  and  _444
REMARK  191  A    between atoms: _443  and  _446
REMARK  192  A    between atoms: _446  and  _447
REMARK  193  A    between atoms: _447  and  _448
REMARK  194  A    between atoms: _450  and  _452
REMARK  195  A    between atoms: _452  and  _453
REMARK  196  A    between atoms: _452  and  _455
REMARK  197  A    between atoms: _455  and  _456
REMARK  198  A    between atoms: _458  and  _460
REMARK  199  A    between atoms: _460  and  _461
REMARK  200  A    between atoms: _463  and  _465
REMARK  201  A    between atoms: _465  and  _466
REMARK  202  A    between atoms: _468  and  _470
REMARK  203  A    between atoms: _470  and  _471
REMARK  204  A    between atoms: _473  and  _475
REMARK  205  A    between atoms: _475  and  _476
REMARK  206  A    between atoms: _478  and  _480
REMARK  207  A    between atoms: _480  and  _481
REMARK  208  A    between atoms: _483  and  _485
REMARK  209  A    between atoms: _485  and  _486
REMARK  210  A    between atoms: _485  and  _488
REMARK  211  A    between atoms: _490  and  _492
REMARK  212  A    between atoms: _492  and  _493
REMARK  213  A    between atoms: _492  and  _495
REMARK  214  A    between atoms: _495  and  _496
REMARK                            x       y       z     vdW  Elec       q    Type
REMARK                         _______ _______ _______ _____ _____    ______ ____
ROOT
ATOM      1  CA  HIS A   3      25.405  15.209  45.242  0.00  0.00    +0.155 C 
ENDROOT
BRANCH   1   3
ATOM      2  C   GLY A   2      27.787  15.652  45.447  0.00  0.00    +0.243 C 
ATOM      3  N   HIS A   3      26.653  15.225  46.003  0.00  0.00    -0.297 N 
ATOM      4  H   HIS A   3      26.656  14.899  46.991  0.00  0.00    +0.150 HD
ATOM      5  O   GLY A   2      27.853  15.985  44.258  0.00  0.00    -0.273 OA
BRANCH   2   6
ATOM      6  CA  GLY A   2      29.006  15.664  46.351  0.00  0.00    +0.176 C 
BRANCH   6   8
ATOM      7  C   TYR A   1      30.238  13.757  45.446  0.00  0.00    +0.239 C 
ATOM      8  N   GLY A   2      30.215  15.024  45.854  0.00  0.00    -0.296 N 
ATOM      9  H   GLY A   2      31.095  15.578  45.816  0.00  0.00    +0.150 HD
ATOM     10  O   TYR A   1      29.267  13.024  45.424  0.00  0.00    -0.274 OA
BRANCH   7  11
ATOM     11  CA  TYR A   1      31.567  13.231  45.006  0.00  0.00    +0.149 C 
BRANCH  11  12
ATOM     12  N   TYR A   1      31.873  12.153  45.910  0.00  0.00    -0.238 NA
ATOM     13  H   TYR A   1      31.852  11.172  45.564  0.00  0.00    +0.142 HD
ENDBRANCH  11  12
BRANCH  11  14
ATOM     14  CB  TYR A   1      31.476  12.709  43.594  0.00  0.00    +0.053 C 
BRANCH  14  15
ATOM     15  CG  TYR A   1      31.697  13.816  42.583  0.00  0.00    -0.020 A 
ATOM     16  CD2 TYR A   1      32.955  14.470  42.476  0.00  0.00    -0.001 A 
ATOM     17  CE2 TYR A   1      33.156  15.543  41.527  0.00  0.00    +0.036 A 
ATOM     18  CZ  TYR A   1      32.068  15.947  40.687  0.00  0.00    +0.134 A 
ATOM     19  CE1 TYR A   1      30.820  15.286  40.789  0.00  0.00    +0.036 A 
ATOM     20  CD1 TYR A   1      30.644  14.228  41.736  0.00  0.00    -0.001 A 
BRANCH  18  21
ATOM     21  OH  TYR A   1      32.174  17.015  39.792  0.00  0.00    -0.506 OA
ATOM     22  HH  TYR A   1      33.094  17.380  39.823  0.00  0.00    +0.292 HD
ENDBRANCH  18  21
ENDBRANCH  14  15
ENDBRANCH  11  14
ENDBRANCH   7  11
ENDBRANCH   6   8
ENDBRANCH   2   6
ENDBRANCH   1   3
BRANCH   1  23
ATOM     23  C   HIS A   3      24.656  16.486  45.577  0.00  0.00    +0.241 C 
ATOM     24  O   HIS A   3      23.605  16.451  46.223  0.00  0.00    -0.273 OA
ATOM     25  N   THR A   4      25.214  17.605  45.123  0.00  0.00    -0.295 N 
ATOM     26  H   THR A   4      26.074  17.534  44.542  0.00  0.00    +0.150 HD
BRANCH  25  27
ATOM     27  CA  THR A   4      24.671  18.921  45.406  0.00  0.00    +0.176 C 
BRANCH  27  28
ATOM     28  C   THR A   4      23.225  19.126  44.978  0.00  0.00    +0.243 C 
ATOM     29  O   THR A   4      22.431  19.708  45.727  0.00  0.00    -0.273 OA
ATOM     30  N   ARG A   5      22.870  18.653  43.792  0.00  0.00    -0.298 N 
ATOM     31  H   ARG A   5      23.570  18.169  43.194  0.00  0.00    +0.150 HD
BRANCH  30  32
ATOM     32  CA  ARG A   5      21.499  18.812  43.326  0.00  0.00    +0.137 C 
BRANCH  32  33
ATOM     33  C   ARG A   5      20.556  18.083  44.274  0.00  0.00    +0.227 C 
ATOM     34  O   ARG A   5      19.569  18.645  44.737  0.00  0.00    -0.286 OA
ENDBRANCH  32  33
BRANCH  32  35
ATOM     35  CB  ARG A   5      21.325  18.256  41.911  0.00  0.00    +0.031 C 
BRANCH  35  36
ATOM     36  CG  ARG A   5      22.268  18.854  40.911  0.00  0.00    +0.045 C 
BRANCH  36  37
ATOM     37  CD  ARG A   5      21.833  18.559  39.510  0.00  0.00    +0.174 C 
BRANCH  37  38
ATOM     38  NE  ARG A   5      22.814  19.016  38.520  0.00  0.00    -0.265 N 
ATOM     39  CZ  ARG A   5      23.933  18.349  38.214  0.00  0.00    +0.342 C 
ATOM     40  NH2 ARG A   5      24.168  17.214  38.824  0.00  0.00    -0.292 N 
ATOM     41 HH21 ARG A   5      23.493  16.852  39.527  0.00  0.00    +0.255 HD
ATOM     42 HH22 ARG A   5      25.030  16.675  38.605  0.00  0.00    +0.255 HD
ATOM     43  NH1 ARG A   5      24.819  18.821  37.330  0.00  0.00    -0.292 N 
ATOM     44 HH11 ARG A   5      25.679  18.277  37.115  0.00  0.00    +0.255 HD
ATOM     45 HH12 ARG A   5      24.648  19.732  36.858  0.00  0.00    +0.255 HD
ATOM     46  HE  ARG A   5      22.629  19.912  38.026  0.00  0.00    +0.259 HD
ENDBRANCH  37  38
ENDBRANCH  36  37
ENDBRANCH  35  36
ENDBRANCH  32  35
ENDBRANCH  30  32
ENDBRANCH  27  28
BRANCH  27  47
ATOM     47  CB  THR A   4      25.559  20.047  44.793  0.00  0.00    +0.137 C 
ATOM     48  CG2 THR A   4      24.962  21.389  45.113  0.00  0.00    +0.034 C 
BRANCH  47  49
ATOM     49  OG1 THR A   4      26.894  19.992  45.343  0.00  0.00    -0.382 OA
ATOM     50  HG1 THR A   4      27.444  20.712  44.944  0.00  0.00    +0.210 HD
ENDBRANCH  47  49
ENDBRANCH  27  47
ENDBRANCH  25  27
ENDBRANCH   1  23
BRANCH   1  51
ATOM     51  CB  HIS A   3      24.583  14.009  45.643  0.00  0.00    +0.076 C 
BRANCH  51  52
ATOM     52  CG  HIS A   3      25.245  12.720  45.298  0.00  0.00    +0.082 A 
ATOM     53  ND1 HIS A   3      26.286  12.194  46.045  0.00  0.00    -0.227 NA
ATOM     54  CE1 HIS A   3      26.774  11.139  45.421  0.00  0.00    +0.199 A 
ATOM     55  NE2 HIS A   3      26.085  10.961  44.304  0.00  0.00    -0.221 NA
ATOM     56  CD2 HIS A   3      25.115  11.929  44.209  0.00  0.00    +0.115 A 
ENDBRANCH  51  52
ENDBRANCH   1  51
TORSDOF 21
REMARK  Name = ../refined-set-2016/2oi2/2oi2_pocket.pdb
REMARK  214 active torsions:
REMARK  status: ('A' for Active; 'I' for Inactive)
REMARK    1  A    between atoms: _1  and  _3
REMARK    2  A    between atoms: _3  and  _4
REMARK    3  A    between atoms: _3  and  _6
REMARK    4  A    between atoms: _6  and  _7
REMARK    5  A    between atoms: _9  and  _11
REMARK    6  A    between atoms: _11  and  _12
REMARK    7  A    between atoms: _11  and  _14
REMARK    8  A    between atoms: _14  and  _15
REMARK    9  A    between atoms: _15  and  _16
REMARK   10  A    between atoms: _16  and  _17
REMARK   11  A    between atoms: _17  and  _18
REMARK   12  A    between atoms: _22  and  _24
REMARK   13  A    between atoms: _24  and  _25
REMARK   14  A    between atoms: _24  and  _27
REMARK   15  A    between atoms: _27  and  _28
REMARK   16  A    between atoms: _31  and  _33
REMARK   17  A    between atoms: _33  and  _34
REMARK   18  A    between atoms: _33  and  _36
REMARK   19  A    between atoms: _36  and  _37
REMARK   20  A    between atoms: _40  and  _42
REMARK   21  A    between atoms: _42  and  _43
REMARK   22  A    between atoms: _45  and  _47
REMARK   23  A    between atoms: _47  and  _48
REMARK   24  A    between atoms: _47  and  _50
REMARK   25  A    between atoms: _50  and  _51
REMARK   26  A    between atoms: _51  and  _52
REMARK   27  A    between atoms: _55  and  _57
REMARK   28  A    between atoms: _57  and  _58
REMARK   29  A    between atoms: _57  and  _60
REMARK   30  A    between atoms: _60  and  _61
REMARK   31  A    between atoms: _66  and  _68
REMARK   32  A    between atoms: _68  and  _69
REMARK   33  A    between atoms: _72  and  _74
REMARK   34  A    between atoms: _74  and  _75
REMARK   35  A    between atoms: _74  and  _77
REMARK   36  A    between atoms: _80  and  _82
REMARK   37  A    between atoms: _82  and  _83
REMARK   38  A    between atoms: _82  and  _85
REMARK   39  A    between atoms: _88  and  _90
REMARK   40  A    between atoms: _90  and  _91
REMARK   41  A    between atoms: _90  and  _93
REMARK   42  A    between atoms: _93  and  _94
REMARK   43  A    between atoms: _99  and  _100
REMARK   44  A    between atoms: _102  and  _104
REMARK   45  A    between atoms: _104  and  _105
REMARK   46  A    between atoms: _107  and  _109
REMARK   47  A    between atoms: _109  and  _110
REMARK   48  A    between atoms: _113  and  _115
REMARK   49  A    between atoms: _115  and  _116
REMARK   50  A    between atoms: _115  and  _118
REMARK   51  A    between atoms: _118  and  _119
REMARK   52  A    between atoms: _121  and  _123
REMARK   53  A    between atoms: _123  and  _124
REMARK   54  A    between atoms: _123  and  _126
REMARK   55  A    between atoms: _126  and  _127
REMARK   56  A    between atoms: _130  and  _132
REMARK   57  A    between atoms: _132  and  _133
REMARK   58  A    between atoms: _135  and  _137
REMARK   59  A    between atoms: _137  and  _138
REMARK   60  A    between atoms: _137  and  _140
REMARK   61  A    between atoms: _140  and  _141
REMARK   62  A    between atoms: _141  and  _142
REMARK   63  A    between atoms: _144  and  _146
REMARK   64  A    between atoms: _146  and  _147
REMARK   65  A    between atoms: _149  and  _151
REMARK   66  A    between atoms: _151  and  _152
REMARK   67  A    between atoms: _151  and  _154
REMARK   68  A    between atoms: _154  and  _155
REMARK   69  A    between atoms: _157  and  _159
REMARK   70  A    between atoms: _159  and  _160
REMARK   71  A    between atoms: _159  and  _162
REMARK   72  A    between atoms: _162  and  _163
REMARK   73  A    between atoms: _165  and  _167
REMARK   74  A    between atoms: _167  and  _168
REMARK   75  A    between atoms: _171  and  _173
REMARK   76  A    between atoms: _173  and  _174
REMARK   77  A    between atoms: _177  and  _179
REMARK   78  A    between atoms: _179  and  _180
REMARK   79  A    between atoms: _179  and  _182
REMARK   80  A    between atoms: _182  and  _183
REMARK   81  A    between atoms: _186  and  _188
REMARK   82  A    between atoms: _188  and  _189
REMARK   83  A    between atoms: _188  and  _191
REMARK   84  A    between atoms: _191  and  _192
REMARK   85  A    between atoms: _194  and  _196
REMARK   86  A    between atoms: _196  and  _197
REMARK   87  A    between atoms: _196  and  _199
REMARK   88  A    between atoms: _199  and  _200
REMARK   89  A    between atoms: _205  and  _207
REMARK   90  A    between atoms: _207  and  _208
REMARK   91  A    between atoms: _207  and  _210
REMARK   92  A    between atoms: _210  and  _211
REMARK   93  A    between atoms: _211  and  _212
REMARK   94  A    between atoms: _215  and  _217
REMARK   95  A    between atoms: _217  and  _218
REMARK   96  A    between atoms: _217  and  _220
REMARK   97  A    between atoms: _220  and  _221
REMARK   98  A    between atoms: _221  and  _222
REMARK   99  A    between atoms: _224  and  _226
REMARK  100  A    between atoms: _226  and  _227
REMARK  101  A    between atoms: _226  and  _229
REMARK  102  A    between atoms: _229  and  _230
REMARK  103  A    between atoms: _236  and  _237
REMARK  104  A    between atoms: _242  and  _244
REMARK  105  A    between atoms: _244  and  _245
REMARK  106  A    between atoms: _244  and  _247
REMARK  107  A    between atoms: _247  and  _248
REMARK  108  A    between atoms: _250  and  _252
REMARK  109  A    between atoms: _252  and  _253
REMARK  110  A    between atoms: _255  and  _257
REMARK  111  A    between atoms: _257  and  _258
REMARK  112  A    between atoms: _257  and  _260
REMARK  113  A    between atoms: _260  and  _261
REMARK  114  A    between atoms: _264  and  _266
REMARK  115  A    between atoms: _266  and  _267
REMARK  116  A    between atoms: _266  and  _269
REMARK  117  A    between atoms: _269  and  _270
REMARK  118  A    between atoms: _270  and  _272
REMARK  119  A    between atoms: _272  and  MG_501
REMARK  120  A    between atoms: _273  and  _275
REMARK  121  A    between atoms: _275  and  _276
REMARK  122  A    between atoms: _279  and  _281
REMARK  123  A    between atoms: _281  and  _282
REMARK  124  A    between atoms: _281  and  _284
REMARK  125  A    between atoms: _284  and  _285
REMARK  126  A    between atoms: _285  and  _286
REMARK  127  A    between atoms: _286  and  _287
REMARK  128  A    between atoms: _287  and  _288
REMARK  129  A    between atoms: _292  and  _294
REMARK  130  A    between atoms: _294  and  _295
REMARK  131  A    between atoms: _294  and  _297
REMARK  132  A    between atoms: _297  and  _298
REMARK  133  A    between atoms: _301  and  _303
REMARK  134  A    between atoms: _303  and  _304
REMARK  135  A    between atoms: _303  and  _306
REMARK  136  A    between atoms: _308  and  _310
REMARK  137  A    between atoms: _310  and  _311
REMARK  138  A    between atoms: _310  and  _313
REMARK  139  A    between atoms: _313  and  _314
REMARK  140  A    between atoms: _320  and  _322
REMARK  141  A    between atoms: _322  and  _323
REMARK  142  A    between atoms: _322  and  _325
REMARK  143  A    between atoms: _325  and  _326
REMARK  144  A    between atoms: _326  and  _327
REMARK  145  A    between atoms: _327  and  _328
REMARK  146  A    between atoms: _328  and  _329
REMARK  147  A    between atoms: _333  and  _335
REMARK  148  A    between atoms: _335  and  _336
REMARK  149  A    between atoms: _335  and  _338
REMARK  150  A    between atoms: _338  and  _339
REMARK  151  A    between atoms: _344  and  _345
REMARK  152  A    between atoms: _347  and  _349
REMARK  153  A    between atoms: _349  and  _350
REMARK  154  A    between atoms: _352  and  _354
REMARK  155  A    between atoms: _354  and  _355
REMARK  156  A    between atoms: _354  and  _357
REMARK  157  A    between atoms: _357  and  _358
REMARK  158  A    between atoms: _363  and  _365
REMARK  159  A    between atoms: _365  and  _366
REMARK  160  A    between atoms: _365  and  _368
REMARK  161  A    between atoms: _368  and  _369
REMARK  162  A    between atoms: _372  and  _374
REMARK  163  A    between atoms: _374  and  _375
REMARK  164  A    between atoms: _374  and  _377
REMARK  165  A    between atoms: _377  and  _378
REMARK  166  A    between atoms: _378  and  _379
REMARK  167  A    between atoms: _379  and  _380
REMARK  168  A    between atoms: _389  and  _391
REMARK  169  A    between atoms: _391  and  _392
REMARK  170  A    between atoms: _395  and  _397
REMARK  171  A    between atoms: _397  and  _398
REMARK  172  A    between atoms: _397  and  _400
REMARK  173  A    between atoms: _400  and  _401
REMARK  174  A    between atoms: _404  and  _406
REMARK  175  A    between atoms: _406  and  _407
REMARK  176  A    between atoms: _406  and  _409
REMARK  177  A    between atoms: _409  and  _410
REMARK  178  A    between atoms: _410  and  _411
REMARK  179  A    between atoms: _416  and  _418
REMARK  180  A    between atoms: _418  and  _419
REMARK  181  A    between atoms: _418  and  _421
REMARK  182  A    between atoms: _424  and  _426
REMARK  183  A    between atoms: _426  and  _427
REMARK  184  A    between atoms: _426  and  _429
REMARK  185  A    between atoms: _429  and  _430
REMARK  186  A    between atoms: _433  and  _435
REMARK  187  A    between atoms: _435  and  _436
REMARK  188  A    between atoms: _435  and  _438
REMARK  189  A    between atoms: _441  and  _443
REMARK  190  A    between atoms: _443  and  _444
REMARK  191  A    between atoms: _443  and  _446
REMARK  192  A    between atoms: _446  and  _447
REMARK  193  A    between atoms: _447  and  _448
REMARK  194  A    between atoms: _450  and  _452
REMARK  195  A    between atoms: _452  and  _453
REMARK  196  A    between atoms: _452  and  _455
REMARK  197  A    between atoms: _455  and  _456
REMARK  198  A    between atoms: _458  and  _460
REMARK  199  A    between atoms: _460  and  _461
REMARK  200  A    between atoms: _463  and  _465
REMARK  201  A    between atoms: _465  and  _466
REMARK  202  A    between atoms: _468  and  _470
REMARK  203  A    between atoms: _470  and  _471
REMARK  204  A    between atoms: _473  and  _475
REMARK  205  A    between atoms: _475  and  _476
REMARK  206  A    between atoms: _478  and  _480
REMARK  207  A    between atoms: _480  and  _481
REMARK  208  A    between atoms: _483  and  _485
REMARK  209  A    between atoms: _485  and  _486
REMARK  210  A    between atoms: _485  and  _488
REMARK  211  A    between atoms: _490  and  _492
REMARK  212  A    between atoms: _492  and  _493
REMARK  213  A    between atoms: _492  and  _495
REMARK  214  A    between atoms: _495  and  _496
REMARK                            x       y       z     vdW  Elec       q    Type
REMARK                         _______ _______ _______ _____ _____    ______ ____
ROOT
ATOM      1  C   ILE A   2      17.673  20.651  47.280  0.00  0.00    +0.241 C 
ATOM      2  O   ILE A   2      16.787  21.223  47.903  0.00  0.00    -0.273 OA
ATOM      3  N   GLN A   3      17.457  19.525  46.597  0.00  0.00    -0.298 N 
ATOM      4  H   GLN A   3      18.237  19.115  46.045  0.00  0.00    +0.150 HD
ENDROOT
BRANCH   1   5
ATOM      5  CA  ILE A   2      19.106  21.217  47.271  0.00  0.00    +0.148 C 
BRANCH   5   8
ATOM      6  C   ALA A   1      19.925  19.299  48.475  0.00  0.00    +0.238 C 
ATOM      7  O   ALA A   1      19.090  19.510  49.371  0.00  0.00    -0.274 OA
ATOM      8  N   ILE A   2      20.018  20.083  47.409  0.00  0.00    -0.297 N 
ATOM      9  H   ILE A   2      20.733  19.893  46.678  0.00  0.00    +0.150 HD
BRANCH   6  10
ATOM     10  CA  ALA A   1      20.902  18.102  48.548  0.00  0.00    +0.145 C 
ATOM     11  CB  ALA A   1      22.295  18.563  48.905  0.00  0.00    +0.028 C 
BRANCH  10  12
ATOM     12  N   ALA A   1      20.941  17.386  47.268  0.00  0.00    -0.238 NA
ATOM     13  H   ALA A   1      21.828  17.355  46.726  0.00  0.00    +0.142 HD
ENDBRANCH  10  12
ENDBRANCH   6  10
ENDBRANCH   5   8
BRANCH   5  14
ATOM     14  CB  ILE A   2      19.400  22.039  45.968  0.00  0.00    +0.027 C 
ATOM     15  CG2 ILE A   2      18.324  23.058  45.738  0.00  0.00    +0.002 C 
BRANCH  14  16
ATOM     16  CG1 ILE A   2      20.751  22.759  46.106  0.00  0.00    +0.002 C 
ATOM     17  CD1 ILE A   2      21.277  23.385  44.859  0.00  0.00    +0.000 C 
ENDBRANCH  14  16
ENDBRANCH   5  14
ENDBRANCH   1   5
BRANCH   3  18
ATOM     18  CA  GLN A   3      16.155  18.846  46.599  0.00  0.00    +0.137 C 
BRANCH  18  19
ATOM     19  C   GLN A   3      15.631  18.553  48.030  0.00  0.00    +0.227 C 
ATOM     20  O   GLN A   3      14.488  18.876  48.366  0.00  0.00    -0.286 OA
ENDBRANCH  18  19
BRANCH  18  21
ATOM     21  CB  GLN A   3      16.244  17.540  45.814  0.00  0.00    +0.037 C 
BRANCH  21  22
ATOM     22  CG  GLN A   3      15.759  17.678  44.362  0.00  0.00    +0.087 C 
BRANCH  22  23
ATOM     23  CD  GLN A   3      14.302  18.269  44.255  0.00  0.00    +0.219 C 
ATOM     24  NE2 GLN A   3      13.430  17.957  45.266  0.00  0.00    -0.329 N 
ATOM     25 HE21 GLN A   3      13.744  17.362  46.059  0.00  0.00    +0.145 HD
ATOM     26 HE22 GLN A   3      12.454  18.316  45.240  0.00  0.00    +0.145 HD
ATOM     27  OE1 GLN A   3      13.964  18.996  43.261  0.00  0.00    -0.275 OA
ENDBRANCH  22  23
ENDBRANCH  21  22
ENDBRANCH  18  21
ENDBRANCH   3  18
TORSDOF 11
REMARK  Name = ../refined-set-2016/2oi2/2oi2_pocket.pdb
REMARK  214 active torsions:
REMARK  status: ('A' for Active; 'I' for Inactive)
REMARK    1  A    between atoms: _1  and  _3
REMARK    2  A    between atoms: _3  and  _4
REMARK    3  A    between atoms: _3  and  _6
REMARK    4  A    between atoms: _6  and  _7
REMARK    5  A    between atoms: _9  and  _11
REMARK    6  A    between atoms: _11  and  _12
REMARK    7  A    between atoms: _11  and  _14
REMARK    8  A    between atoms: _14  and  _15
REMARK    9  A    between atoms: _15  and  _16
REMARK   10  A    between atoms: _16  and  _17
REMARK   11  A    between atoms: _17  and  _18
REMARK   12  A    between atoms: _22  and  _24
REMARK   13  A    between atoms: _24  and  _25
REMARK   14  A    between atoms: _24  and  _27
REMARK   15  A    between atoms: _27  and  _28
REMARK   16  A    between atoms: _31  and  _33
REMARK   17  A    between atoms: _33  and  _34
REMARK   18  A    between atoms: _33  and  _36
REMARK   19  A    between atoms: _36  and  _37
REMARK   20  A    between atoms: _40  and  _42
REMARK   21  A    between atoms: _42  and  _43
REMARK   22  A    between atoms: _45  and  _47
REMARK   23  A    between atoms: _47  and  _48
REMARK   24  A    between atoms: _47  and  _50
REMARK   25  A    between atoms: _50  and  _51
REMARK   26  A    between atoms: _51  and  _52
REMARK   27  A    between atoms: _55  and  _57
REMARK   28  A    between atoms: _57  and  _58
REMARK   29  A    between atoms: _57  and  _60
REMARK   30  A    between atoms: _60  and  _61
REMARK   31  A    between atoms: _66  and  _68
REMARK   32  A    between atoms: _68  and  _69
REMARK   33  A    between atoms: _72  and  _74
REMARK   34  A    between atoms: _74  and  _75
REMARK   35  A    between atoms: _74  and  _77
REMARK   36  A    between atoms: _80  and  _82
REMARK   37  A    between atoms: _82  and  _83
REMARK   38  A    between atoms: _82  and  _85
REMARK   39  A    between atoms: _88  and  _90
REMARK   40  A    between atoms: _90  and  _91
REMARK   41  A    between atoms: _90  and  _93
REMARK   42  A    between atoms: _93  and  _94
REMARK   43  A    between atoms: _99  and  _100
REMARK   44  A    between atoms: _102  and  _104
REMARK   45  A    between atoms: _104  and  _105
REMARK   46  A    between atoms: _107  and  _109
REMARK   47  A    between atoms: _109  and  _110
REMARK   48  A    between atoms: _113  and  _115
REMARK   49  A    between atoms: _115  and  _116
REMARK   50  A    between atoms: _115  and  _118
REMARK   51  A    between atoms: _118  and  _119
REMARK   52  A    between atoms: _121  and  _123
REMARK   53  A    between atoms: _123  and  _124
REMARK   54  A    between atoms: _123  and  _126
REMARK   55  A    between atoms: _126  and  _127
REMARK   56  A    between atoms: _130  and  _132
REMARK   57  A    between atoms: _132  and  _133
REMARK   58  A    between atoms: _135  and  _137
REMARK   59  A    between atoms: _137  and  _138
REMARK   60  A    between atoms: _137  and  _140
REMARK   61  A    between atoms: _140  and  _141
REMARK   62  A    between atoms: _141  and  _142
REMARK   63  A    between atoms: _144  and  _146
REMARK   64  A    between atoms: _146  and  _147
REMARK   65  A    between atoms: _149  and  _151
REMARK   66  A    between atoms: _151  and  _152
REMARK   67  A    between atoms: _151  and  _154
REMARK   68  A    between atoms: _154  and  _155
REMARK   69  A    between atoms: _157  and  _159
REMARK   70  A    between atoms: _159  and  _160
REMARK   71  A    between atoms: _159  and  _162
REMARK   72  A    between atoms: _162  and  _163
REMARK   73  A    between atoms: _165  and  _167
REMARK   74  A    between atoms: _167  and  _168
REMARK   75  A    between atoms: _171  and  _173
REMARK   76  A    between atoms: _173  and  _174
REMARK   77  A    between atoms: _177  and  _179
REMARK   78  A    between atoms: _179  and  _180
REMARK   79  A    between atoms: _179  and  _182
REMARK   80  A    between atoms: _182  and  _183
REMARK   81  A    between atoms: _186  and  _188
REMARK   82  A    between atoms: _188  and  _189
REMARK   83  A    between atoms: _188  and  _191
REMARK   84  A    between atoms: _191  and  _192
REMARK   85  A    between atoms: _194  and  _196
REMARK   86  A    between atoms: _196  and  _197
REMARK   87  A    between atoms: _196  and  _199
REMARK   88  A    between atoms: _199  and  _200
REMARK   89  A    between atoms: _205  and  _207
REMARK   90  A    between atoms: _207  and  _208
REMARK   91  A    between atoms: _207  and  _210
REMARK   92  A    between atoms: _210  and  _211
REMARK   93  A    between atoms: _211  and  _212
REMARK   94  A    between atoms: _215  and  _217
REMARK   95  A    between atoms: _217  and  _218
REMARK   96  A    between atoms: _217  and  _220
REMARK   97  A    between atoms: _220  and  _221
REMARK   98  A    between atoms: _221  and  _222
REMARK   99  A    between atoms: _224  and  _226
REMARK  100  A    between atoms: _226  and  _227
REMARK  101  A    between atoms: _226  and  _229
REMARK  102  A    between atoms: _229  and  _230
REMARK  103  A    between atoms: _236  and  _237
REMARK  104  A    between atoms: _242  and  _244
REMARK  105  A    between atoms: _244  and  _245
REMARK  106  A    between atoms: _244  and  _247
REMARK  107  A    between atoms: _247  and  _248
REMARK  108  A    between atoms: _250  and  _252
REMARK  109  A    between atoms: _252  and  _253
REMARK  110  A    between atoms: _255  and  _257
REMARK  111  A    between atoms: _257  and  _258
REMARK  112  A    between atoms: _257  and  _260
REMARK  113  A    between atoms: _260  and  _261
REMARK  114  A    between atoms: _264  and  _266
REMARK  115  A    between atoms: _266  and  _267
REMARK  116  A    between atoms: _266  and  _269
REMARK  117  A    between atoms: _269  and  _270
REMARK  118  A    between atoms: _270  and  _272
REMARK  119  A    between atoms: _272  and  MG_501
REMARK  120  A    between atoms: _273  and  _275
REMARK  121  A    between atoms: _275  and  _276
REMARK  122  A    between atoms: _279  and  _281
REMARK  123  A    between atoms: _281  and  _282
REMARK  124  A    between atoms: _281  and  _284
REMARK  125  A    between atoms: _284  and  _285
REMARK  126  A    between atoms: _285  and  _286
REMARK  127  A    between atoms: _286  and  _287
REMARK  128  A    between atoms: _287  and  _288
REMARK  129  A    between atoms: _292  and  _294
REMARK  130  A    between atoms: _294  and  _295
REMARK  131  A    between atoms: _294  and  _297
REMARK  132  A    between atoms: _297  and  _298
REMARK  133  A    between atoms: _301  and  _303
REMARK  134  A    between atoms: _303  and  _304
REMARK  135  A    between atoms: _303  and  _306
REMARK  136  A    between atoms: _308  and  _310
REMARK  137  A    between atoms: _310  and  _311
REMARK  138  A    between atoms: _310  and  _313
REMARK  139  A    between atoms: _313  and  _314
REMARK  140  A    between atoms: _320  and  _322
REMARK  141  A    between atoms: _322  and  _323
REMARK  142  A    between atoms: _322  and  _325
REMARK  143  A    between atoms: _325  and  _326
REMARK  144  A    between atoms: _326  and  _327
REMARK  145  A    between atoms: _327  and  _328
REMARK  146  A    between atoms: _328  and  _329
REMARK  147  A    between atoms: _333  and  _335
REMARK  148  A    between atoms: _335  and  _336
REMARK  149  A    between atoms: _335  and  _338
REMARK  150  A    between atoms: _338  and  _339
REMARK  151  A    between atoms: _344  and  _345
REMARK  152  A    between atoms: _347  and  _349
REMARK  153  A    between atoms: _349  and  _350
REMARK  154  A    between atoms: _352  and  _354
REMARK  155  A    between atoms: _354  and  _355
REMARK  156  A    between atoms: _354  and  _357
REMARK  157  A    between atoms: _357  and  _358
REMARK  158  A    between atoms: _363  and  _365
REMARK  159  A    between atoms: _365  and  _366
REMARK  160  A    between atoms: _365  and  _368
REMARK  161  A    between atoms: _368  and  _369
REMARK  162  A    between atoms: _372  and  _374
REMARK  163  A    between atoms: _374  and  _375
REMARK  164  A    between atoms: _374  and  _377
REMARK  165  A    between atoms: _377  and  _378
REMARK  166  A    between atoms: _378  and  _379
REMARK  167  A    between atoms: _379  and  _380
REMARK  168  A    between atoms: _389  and  _391
REMARK  169  A    between atoms: _391  and  _392
REMARK  170  A    between atoms: _395  and  _397
REMARK  171  A    between atoms: _397  and  _398
REMARK  172  A    between atoms: _397  and  _400
REMARK  173  A    between atoms: _400  and  _401
REMARK  174  A    between atoms: _404  and  _406
REMARK  175  A    between atoms: _406  and  _407
REMARK  176  A    between atoms: _406  and  _409
REMARK  177  A    between atoms: _409  and  _410
REMARK  178  A    between atoms: _410  and  _411
REMARK  179  A    between atoms: _416  and  _418
REMARK  180  A    between atoms: _418  and  _419
REMARK  181  A    between atoms: _418  and  _421
REMARK  182  A    between atoms: _424  and  _426
REMARK  183  A    between atoms: _426  and  _427
REMARK  184  A    between atoms: _426  and  _429
REMARK  185  A    between atoms: _429  and  _430
REMARK  186  A    between atoms: _433  and  _435
REMARK  187  A    between atoms: _435  and  _436
REMARK  188  A    between atoms: _435  and  _438
REMARK  189  A    between atoms: _441  and  _443
REMARK  190  A    between atoms: _443  and  _444
REMARK  191  A    between atoms: _443  and  _446
REMARK  192  A    between atoms: _446  and  _447
REMARK  193  A    between atoms: _447  and  _448
REMARK  194  A    between atoms: _450  and  _452
REMARK  195  A    between atoms: _452  and  _453
REMARK  196  A    between atoms: _452  and  _455
REMARK  197  A    between atoms: _455  and  _456
REMARK  198  A    between atoms: _458  and  _460
REMARK  199  A    between atoms: _460  and  _461
REMARK  200  A    between atoms: _463  and  _465
REMARK  201  A    between atoms: _465  and  _466
REMARK  202  A    between atoms: _468  and  _470
REMARK  203  A    between atoms: _470  and  _471
REMARK  204  A    between atoms: _473  and  _475
REMARK  205  A    between atoms: _475  and  _476
REMARK  206  A    between atoms: _478  and  _480
REMARK  207  A    between atoms: _480  and  _481
REMARK  208  A    between atoms: _483  and  _485
REMARK  209  A    between atoms: _485  and  _486
REMARK  210  A    between atoms: _485  and  _488
REMARK  211  A    between atoms: _490  and  _492
REMARK  212  A    between atoms: _492  and  _493
REMARK  213  A    between atoms: _492  and  _495
REMARK  214  A    between atoms: _495  and  _496
REMARK                            x       y       z     vdW  Elec       q    Type
REMARK                         _______ _______ _______ _____ _____    ______ ____
ROOT
ATOM      1  CA  VAL A   1      15.959  21.153  51.653  0.00  0.00    +0.133 C 
ENDROOT
BRANCH   1   2
ATOM      2  CB  VAL A   1      17.121  22.174  51.654  0.00  0.00    +0.023 C 
ATOM      3  CG2 VAL A   1      16.737  23.422  52.480  0.00  0.00    +0.002 C 
ATOM      4  CG1 VAL A   1      18.375  21.502  52.206  0.00  0.00    +0.002 C 
ENDBRANCH   1   2
BRANCH   1   5
ATOM      5  N   VAL A   1      16.330  19.954  50.934  0.00  0.00    -0.239 NA
ATOM      6  H   VAL A   1      17.192  19.945  50.352  0.00  0.00    +0.142 HD
ENDBRANCH   1   5
BRANCH   1   7
ATOM      7  C   VAL A   1      14.735  21.751  51.024  0.00  0.00    +0.224 C 
ATOM      8  O   VAL A   1      13.915  22.366  51.695  0.00  0.00    -0.287 OA
ENDBRANCH   1   7
TORSDOF 3
REMARK  Name = ../refined-set-2016/2oi2/2oi2_pocket.pdb
REMARK  214 active torsions:
REMARK  status: ('A' for Active; 'I' for Inactive)
REMARK    1  A    between atoms: _1  and  _3
REMARK    2  A    between atoms: _3  and  _4
REMARK    3  A    between atoms: _3  and  _6
REMARK    4  A    between atoms: _6  and  _7
REMARK    5  A    between atoms: _9  and  _11
REMARK    6  A    between atoms: _11  and  _12
REMARK    7  A    between atoms: _11  and  _14
REMARK    8  A    between atoms: _14  and  _15
REMARK    9  A    between atoms: _15  and  _16
REMARK   10  A    between atoms: _16  and  _17
REMARK   11  A    between atoms: _17  and  _18
REMARK   12  A    between atoms: _22  and  _24
REMARK   13  A    between atoms: _24  and  _25
REMARK   14  A    between atoms: _24  and  _27
REMARK   15  A    between atoms: _27  and  _28
REMARK   16  A    between atoms: _31  and  _33
REMARK   17  A    between atoms: _33  and  _34
REMARK   18  A    between atoms: _33  and  _36
REMARK   19  A    between atoms: _36  and  _37
REMARK   20  A    between atoms: _40  and  _42
REMARK   21  A    between atoms: _42  and  _43
REMARK   22  A    between atoms: _45  and  _47
REMARK   23  A    between atoms: _47  and  _48
REMARK   24  A    between atoms: _47  and  _50
REMARK   25  A    between atoms: _50  and  _51
REMARK   26  A    between atoms: _51  and  _52
REMARK   27  A    between atoms: _55  and  _57
REMARK   28  A    between atoms: _57  and  _58
REMARK   29  A    between atoms: _57  and  _60
REMARK   30  A    between atoms: _60  and  _61
REMARK   31  A    between atoms: _66  and  _68
REMARK   32  A    between atoms: _68  and  _69
REMARK   33  A    between atoms: _72  and  _74
REMARK   34  A    between atoms: _74  and  _75
REMARK   35  A    between atoms: _74  and  _77
REMARK   36  A    between atoms: _80  and  _82
REMARK   37  A    between atoms: _82  and  _83
REMARK   38  A    between atoms: _82  and  _85
REMARK   39  A    between atoms: _88  and  _90
REMARK   40  A    between atoms: _90  and  _91
REMARK   41  A    between atoms: _90  and  _93
REMARK   42  A    between atoms: _93  and  _94
REMARK   43  A    between atoms: _99  and  _100
REMARK   44  A    between atoms: _102  and  _104
REMARK   45  A    between atoms: _104  and  _105
REMARK   46  A    between atoms: _107  and  _109
REMARK   47  A    between atoms: _109  and  _110
REMARK   48  A    between atoms: _113  and  _115
REMARK   49  A    between atoms: _115  and  _116
REMARK   50  A    between atoms: _115  and  _118
REMARK   51  A    between atoms: _118  and  _119
REMARK   52  A    between atoms: _121  and  _123
REMARK   53  A    between atoms: _123  and  _124
REMARK   54  A    between atoms: _123  and  _126
REMARK   55  A    between atoms: _126  and  _127
REMARK   56  A    between atoms: _130  and  _132
REMARK   57  A    between atoms: _132  and  _133
REMARK   58  A    between atoms: _135  and  _137
REMARK   59  A    between atoms: _137  and  _138
REMARK   60  A    between atoms: _137  and  _140
REMARK   61  A    between atoms: _140  and  _141
REMARK   62  A    between atoms: _141  and  _142
REMARK   63  A    between atoms: _144  and  _146
REMARK   64  A    between atoms: _146  and  _147
REMARK   65  A    between atoms: _149  and  _151
REMARK   66  A    between atoms: _151  and  _152
REMARK   67  A    between atoms: _151  and  _154
REMARK   68  A    between atoms: _154  and  _155
REMARK   69  A    between atoms: _157  and  _159
REMARK   70  A    between atoms: _159  and  _160
REMARK   71  A    between atoms: _159  and  _162
REMARK   72  A    between atoms: _162  and  _163
REMARK   73  A    between atoms: _165  and  _167
REMARK   74  A    between atoms: _167  and  _168
REMARK   75  A    between atoms: _171  and  _173
REMARK   76  A    between atoms: _173  and  _174
REMARK   77  A    between atoms: _177  and  _179
REMARK   78  A    between atoms: _179  and  _180
REMARK   79  A    between atoms: _179  and  _182
REMARK   80  A    between atoms: _182  and  _183
REMARK   81  A    between atoms: _186  and  _188
REMARK   82  A    between atoms: _188  and  _189
REMARK   83  A    between atoms: _188  and  _191
REMARK   84  A    between atoms: _191  and  _192
REMARK   85  A    between atoms: _194  and  _196
REMARK   86  A    between atoms: _196  and  _197
REMARK   87  A    between atoms: _196  and  _199
REMARK   88  A    between atoms: _199  and  _200
REMARK   89  A    between atoms: _205  and  _207
REMARK   90  A    between atoms: _207  and  _208
REMARK   91  A    between atoms: _207  and  _210
REMARK   92  A    between atoms: _210  and  _211
REMARK   93  A    between atoms: _211  and  _212
REMARK   94  A    between atoms: _215  and  _217
REMARK   95  A    between atoms: _217  and  _218
REMARK   96  A    between atoms: _217  and  _220
REMARK   97  A    between atoms: _220  and  _221
REMARK   98  A    between atoms: _221  and  _222
REMARK   99  A    between atoms: _224  and  _226
REMARK  100  A    between atoms: _226  and  _227
REMARK  101  A    between atoms: _226  and  _229
REMARK  102  A    between atoms: _229  and  _230
REMARK  103  A    between atoms: _236  and  _237
REMARK  104  A    between atoms: _242  and  _244
REMARK  105  A    between atoms: _244  and  _245
REMARK  106  A    between atoms: _244  and  _247
REMARK  107  A    between atoms: _247  and  _248
REMARK  108  A    between atoms: _250  and  _252
REMARK  109  A    between atoms: _252  and  _253
REMARK  110  A    between atoms: _255  and  _257
REMARK  111  A    between atoms: _257  and  _258
REMARK  112  A    between atoms: _257  and  _260
REMARK  113  A    between atoms: _260  and  _261
REMARK  114  A    between atoms: _264  and  _266
REMARK  115  A    between atoms: _266  and  _267
REMARK  116  A    between atoms: _266  and  _269
REMARK  117  A    between atoms: _269  and  _270
REMARK  118  A    between atoms: _270  and  _272
REMARK  119  A    between atoms: _272  and  MG_501
REMARK  120  A    between atoms: _273  and  _275
REMARK  121  A    between atoms: _275  and  _276
REMARK  122  A    between atoms: _279  and  _281
REMARK  123  A    between atoms: _281  and  _282
REMARK  124  A    between atoms: _281  and  _284
REMARK  125  A    between atoms: _284  and  _285
REMARK  126  A    between atoms: _285  and  _286
REMARK  127  A    between atoms: _286  and  _287
REMARK  128  A    between atoms: _287  and  _288
REMARK  129  A    between atoms: _292  and  _294
REMARK  130  A    between atoms: _294  and  _295
REMARK  131  A    between atoms: _294  and  _297
REMARK  132  A    between atoms: _297  and  _298
REMARK  133  A    between atoms: _301  and  _303
REMARK  134  A    between atoms: _303  and  _304
REMARK  135  A    between atoms: _303  and  _306
REMARK  136  A    between atoms: _308  and  _310
REMARK  137  A    between atoms: _310  and  _311
REMARK  138  A    between atoms: _310  and  _313
REMARK  139  A    between atoms: _313  and  _314
REMARK  140  A    between atoms: _320  and  _322
REMARK  141  A    between atoms: _322  and  _323
REMARK  142  A    between atoms: _322  and  _325
REMARK  143  A    between atoms: _325  and  _326
REMARK  144  A    between atoms: _326  and  _327
REMARK  145  A    between atoms: _327  and  _328
REMARK  146  A    between atoms: _328  and  _329
REMARK  147  A    between atoms: _333  and  _335
REMARK  148  A    between atoms: _335  and  _336
REMARK  149  A    between atoms: _335  and  _338
REMARK  150  A    between atoms: _338  and  _339
REMARK  151  A    between atoms: _344  and  _345
REMARK  152  A    between atoms: _347  and  _349
REMARK  153  A    between atoms: _349  and  _350
REMARK  154  A    between atoms: _352  and  _354
REMARK  155  A    between atoms: _354  and  _355
REMARK  156  A    between atoms: _354  and  _357
REMARK  157  A    between atoms: _357  and  _358
REMARK  158  A    between atoms: _363  and  _365
REMARK  159  A    between atoms: _365  and  _366
REMARK  160  A    between atoms: _365  and  _368
REMARK  161  A    between atoms: _368  and  _369
REMARK  162  A    between atoms: _372  and  _374
REMARK  163  A    between atoms: _374  and  _375
REMARK  164  A    between atoms: _374  and  _377
REMARK  165  A    between atoms: _377  and  _378
REMARK  166  A    between atoms: _378  and  _379
REMARK  167  A    between atoms: _379  and  _380
REMARK  168  A    between atoms: _389  and  _391
REMARK  169  A    between atoms: _391  and  _392
REMARK  170  A    between atoms: _395  and  _397
REMARK  171  A    between atoms: _397  and  _398
REMARK  172  A    between atoms: _397  and  _400
REMARK  173  A    between atoms: _400  and  _401
REMARK  174  A    between atoms: _404  and  _406
REMARK  175  A    between atoms: _406  and  _407
REMARK  176  A    between atoms: _406  and  _409
REMARK  177  A    between atoms: _409  and  _410
REMARK  178  A    between atoms: _410  and  _411
REMARK  179  A    between atoms: _416  and  _418
REMARK  180  A    between atoms: _418  and  _419
REMARK  181  A    between atoms: _418  and  _421
REMARK  182  A    between atoms: _424  and  _426
REMARK  183  A    between atoms: _426  and  _427
REMARK  184  A    between atoms: _426  and  _429
REMARK  185  A    between atoms: _429  and  _430
REMARK  186  A    between atoms: _433  and  _435
REMARK  187  A    between atoms: _435  and  _436
REMARK  188  A    between atoms: _435  and  _438
REMARK  189  A    between atoms: _441  and  _443
REMARK  190  A    between atoms: _443  and  _444
REMARK  191  A    between atoms: _443  and  _446
REMARK  192  A    between atoms: _446  and  _447
REMARK  193  A    between atoms: _447  and  _448
REMARK  194  A    between atoms: _450  and  _452
REMARK  195  A    between atoms: _452  and  _453
REMARK  196  A    between atoms: _452  and  _455
REMARK  197  A    between atoms: _455  and  _456
REMARK  198  A    between atoms: _458  and  _460
REMARK  199  A    between atoms: _460  and  _461
REMARK  200  A    between atoms: _463  and  _465
REMARK  201  A    between atoms: _465  and  _466
REMARK  202  A    between atoms: _468  and  _470
REMARK  203  A    between atoms: _470  and  _471
REMARK  204  A    between atoms: _473  and  _475
REMARK  205  A    between atoms: _475  and  _476
REMARK  206  A    between atoms: _478  and  _480
REMARK  207  A    between atoms: _480  and  _481
REMARK  208  A    between atoms: _483  and  _485
REMARK  209  A    between atoms: _485  and  _486
REMARK  210  A    between atoms: _485  and  _488
REMARK  211  A    between atoms: _490  and  _492
REMARK  212  A    between atoms: _492  and  _493
REMARK  213  A    between atoms: _492  and  _495
REMARK  214  A    between atoms: _495  and  _496
REMARK                            x       y       z     vdW  Elec       q    Type
REMARK                         _______ _______ _______ _____ _____    ______ ____
ROOT
ATOM      1  CA  LEU A   1      23.169  21.064  58.272  0.00  0.00    +0.133 C 
ENDROOT
BRANCH   1   2
ATOM      2  N   LEU A   1      23.079  21.618  59.610  0.00  0.00    -0.239 NA
ATOM      3  H   LEU A   1      23.919  22.027  60.067  0.00  0.00    +0.142 HD
ENDBRANCH   1   2
BRANCH   1   4
ATOM      4  C   LEU A   1      22.943  19.547  58.363  0.00  0.00    +0.224 C 
ATOM      5  O   LEU A   1      22.311  18.934  57.504  0.00  0.00    -0.287 OA
ENDBRANCH   1   4
BRANCH   1   6
ATOM      6  CB  LEU A   1      24.538  21.376  57.693  0.00  0.00    +0.025 C 
BRANCH   6   7
ATOM      7  CG  LEU A   1      24.737  22.792  57.156  0.00  0.00    +0.002 C 
ATOM      8  CD2 LEU A   1      26.214  23.080  56.940  0.00  0.00    +0.000 C 
ATOM      9  CD1 LEU A   1      23.947  22.902  55.825  0.00  0.00    +0.000 C 
ENDBRANCH   6   7
ENDBRANCH   1   6
TORSDOF 4
REMARK  Name = ../refined-set-2016/2oi2/2oi2_pocket.pdb
REMARK  214 active torsions:
REMARK  status: ('A' for Active; 'I' for Inactive)
REMARK    1  A    between atoms: _1  and  _3
REMARK    2  A    between atoms: _3  and  _4
REMARK    3  A    between atoms: _3  and  _6
REMARK    4  A    between atoms: _6  and  _7
REMARK    5  A    between atoms: _9  and  _11
REMARK    6  A    between atoms: _11  and  _12
REMARK    7  A    between atoms: _11  and  _14
REMARK    8  A    between atoms: _14  and  _15
REMARK    9  A    between atoms: _15  and  _16
REMARK   10  A    between atoms: _16  and  _17
REMARK   11  A    between atoms: _17  and  _18
REMARK   12  A    between atoms: _22  and  _24
REMARK   13  A    between atoms: _24  and  _25
REMARK   14  A    between atoms: _24  and  _27
REMARK   15  A    between atoms: _27  and  _28
REMARK   16  A    between atoms: _31  and  _33
REMARK   17  A    between atoms: _33  and  _34
REMARK   18  A    between atoms: _33  and  _36
REMARK   19  A    between atoms: _36  and  _37
REMARK   20  A    between atoms: _40  and  _42
REMARK   21  A    between atoms: _42  and  _43
REMARK   22  A    between atoms: _45  and  _47
REMARK   23  A    between atoms: _47  and  _48
REMARK   24  A    between atoms: _47  and  _50
REMARK   25  A    between atoms: _50  and  _51
REMARK   26  A    between atoms: _51  and  _52
REMARK   27  A    between atoms: _55  and  _57
REMARK   28  A    between atoms: _57  and  _58
REMARK   29  A    between atoms: _57  and  _60
REMARK   30  A    between atoms: _60  and  _61
REMARK   31  A    between atoms: _66  and  _68
REMARK   32  A    between atoms: _68  and  _69
REMARK   33  A    between atoms: _72  and  _74
REMARK   34  A    between atoms: _74  and  _75
REMARK   35  A    between atoms: _74  and  _77
REMARK   36  A    between atoms: _80  and  _82
REMARK   37  A    between atoms: _82  and  _83
REMARK   38  A    between atoms: _82  and  _85
REMARK   39  A    between atoms: _88  and  _90
REMARK   40  A    between atoms: _90  and  _91
REMARK   41  A    between atoms: _90  and  _93
REMARK   42  A    between atoms: _93  and  _94
REMARK   43  A    between atoms: _99  and  _100
REMARK   44  A    between atoms: _102  and  _104
REMARK   45  A    between atoms: _104  and  _105
REMARK   46  A    between atoms: _107  and  _109
REMARK   47  A    between atoms: _109  and  _110
REMARK   48  A    between atoms: _113  and  _115
REMARK   49  A    between atoms: _115  and  _116
REMARK   50  A    between atoms: _115  and  _118
REMARK   51  A    between atoms: _118  and  _119
REMARK   52  A    between atoms: _121  and  _123
REMARK   53  A    between atoms: _123  and  _124
REMARK   54  A    between atoms: _123  and  _126
REMARK   55  A    between atoms: _126  and  _127
REMARK   56  A    between atoms: _130  and  _132
REMARK   57  A    between atoms: _132  and  _133
REMARK   58  A    between atoms: _135  and  _137
REMARK   59  A    between atoms: _137  and  _138
REMARK   60  A    between atoms: _137  and  _140
REMARK   61  A    between atoms: _140  and  _141
REMARK   62  A    between atoms: _141  and  _142
REMARK   63  A    between atoms: _144  and  _146
REMARK   64  A    between atoms: _146  and  _147
REMARK   65  A    between atoms: _149  and  _151
REMARK   66  A    between atoms: _151  and  _152
REMARK   67  A    between atoms: _151  and  _154
REMARK   68  A    between atoms: _154  and  _155
REMARK   69  A    between atoms: _157  and  _159
REMARK   70  A    between atoms: _159  and  _160
REMARK   71  A    between atoms: _159  and  _162
REMARK   72  A    between atoms: _162  and  _163
REMARK   73  A    between atoms: _165  and  _167
REMARK   74  A    between atoms: _167  and  _168
REMARK   75  A    between atoms: _171  and  _173
REMARK   76  A    between atoms: _173  and  _174
REMARK   77  A    between atoms: _177  and  _179
REMARK   78  A    between atoms: _179  and  _180
REMARK   79  A    between atoms: _179  and  _182
REMARK   80  A    between atoms: _182  and  _183
REMARK   81  A    between atoms: _186  and  _188
REMARK   82  A    between atoms: _188  and  _189
REMARK   83  A    between atoms: _188  and  _191
REMARK   84  A    between atoms: _191  and  _192
REMARK   85  A    between atoms: _194  and  _196
REMARK   86  A    between atoms: _196  and  _197
REMARK   87  A    between atoms: _196  and  _199
REMARK   88  A    between atoms: _199  and  _200
REMARK   89  A    between atoms: _205  and  _207
REMARK   90  A    between atoms: _207  and  _208
REMARK   91  A    between atoms: _207  and  _210
REMARK   92  A    between atoms: _210  and  _211
REMARK   93  A    between atoms: _211  and  _212
REMARK   94  A    between atoms: _215  and  _217
REMARK   95  A    between atoms: _217  and  _218
REMARK   96  A    between atoms: _217  and  _220
REMARK   97  A    between atoms: _220  and  _221
REMARK   98  A    between atoms: _221  and  _222
REMARK   99  A    between atoms: _224  and  _226
REMARK  100  A    between atoms: _226  and  _227
REMARK  101  A    between atoms: _226  and  _229
REMARK  102  A    between atoms: _229  and  _230
REMARK  103  A    between atoms: _236  and  _237
REMARK  104  A    between atoms: _242  and  _244
REMARK  105  A    between atoms: _244  and  _245
REMARK  106  A    between atoms: _244  and  _247
REMARK  107  A    between atoms: _247  and  _248
REMARK  108  A    between atoms: _250  and  _252
REMARK  109  A    between atoms: _252  and  _253
REMARK  110  A    between atoms: _255  and  _257
REMARK  111  A    between atoms: _257  and  _258
REMARK  112  A    between atoms: _257  and  _260
REMARK  113  A    between atoms: _260  and  _261
REMARK  114  A    between atoms: _264  and  _266
REMARK  115  A    between atoms: _266  and  _267
REMARK  116  A    between atoms: _266  and  _269
REMARK  117  A    between atoms: _269  and  _270
REMARK  118  A    between atoms: _270  and  _272
REMARK  119  A    between atoms: _272  and  MG_501
REMARK  120  A    between atoms: _273  and  _275
REMARK  121  A    between atoms: _275  and  _276
REMARK  122  A    between atoms: _279  and  _281
REMARK  123  A    between atoms: _281  and  _282
REMARK  124  A    between atoms: _281  and  _284
REMARK  125  A    between atoms: _284  and  _285
REMARK  126  A    between atoms: _285  and  _286
REMARK  127  A    between atoms: _286  and  _287
REMARK  128  A    between atoms: _287  and  _288
REMARK  129  A    between atoms: _292  and  _294
REMARK  130  A    between atoms: _294  and  _295
REMARK  131  A    between atoms: _294  and  _297
REMARK  132  A    between atoms: _297  and  _298
REMARK  133  A    between atoms: _301  and  _303
REMARK  134  A    between atoms: _303  and  _304
REMARK  135  A    between atoms: _303  and  _306
REMARK  136  A    between atoms: _308  and  _310
REMARK  137  A    between atoms: _310  and  _311
REMARK  138  A    between atoms: _310  and  _313
REMARK  139  A    between atoms: _313  and  _314
REMARK  140  A    between atoms: _320  and  _322
REMARK  141  A    between atoms: _322  and  _323
REMARK  142  A    between atoms: _322  and  _325
REMARK  143  A    between atoms: _325  and  _326
REMARK  144  A    between atoms: _326  and  _327
REMARK  145  A    between atoms: _327  and  _328
REMARK  146  A    between atoms: _328  and  _329
REMARK  147  A    between atoms: _333  and  _335
REMARK  148  A    between atoms: _335  and  _336
REMARK  149  A    between atoms: _335  and  _338
REMARK  150  A    between atoms: _338  and  _339
REMARK  151  A    between atoms: _344  and  _345
REMARK  152  A    between atoms: _347  and  _349
REMARK  153  A    between atoms: _349  and  _350
REMARK  154  A    between atoms: _352  and  _354
REMARK  155  A    between atoms: _354  and  _355
REMARK  156  A    between atoms: _354  and  _357
REMARK  157  A    between atoms: _357  and  _358
REMARK  158  A    between atoms: _363  and  _365
REMARK  159  A    between atoms: _365  and  _366
REMARK  160  A    between atoms: _365  and  _368
REMARK  161  A    between atoms: _368  and  _369
REMARK  162  A    between atoms: _372  and  _374
REMARK  163  A    between atoms: _374  and  _375
REMARK  164  A    between atoms: _374  and  _377
REMARK  165  A    between atoms: _377  and  _378
REMARK  166  A    between atoms: _378  and  _379
REMARK  167  A    between atoms: _379  and  _380
REMARK  168  A    between atoms: _389  and  _391
REMARK  169  A    between atoms: _391  and  _392
REMARK  170  A    between atoms: _395  and  _397
REMARK  171  A    between atoms: _397  and  _398
REMARK  172  A    between atoms: _397  and  _400
REMARK  173  A    between atoms: _400  and  _401
REMARK  174  A    between atoms: _404  and  _406
REMARK  175  A    between atoms: _406  and  _407
REMARK  176  A    between atoms: _406  and  _409
REMARK  177  A    between atoms: _409  and  _410
REMARK  178  A    between atoms: _410  and  _411
REMARK  179  A    between atoms: _416  and  _418
REMARK  180  A    between atoms: _418  and  _419
REMARK  181  A    between atoms: _418  and  _421
REMARK  182  A    between atoms: _424  and  _426
REMARK  183  A    between atoms: _426  and  _427
REMARK  184  A    between atoms: _426  and  _429
REMARK  185  A    between atoms: _429  and  _430
REMARK  186  A    between atoms: _433  and  _435
REMARK  187  A    between atoms: _435  and  _436
REMARK  188  A    between atoms: _435  and  _438
REMARK  189  A    between atoms: _441  and  _443
REMARK  190  A    between atoms: _443  and  _444
REMARK  191  A    between atoms: _443  and  _446
REMARK  192  A    between atoms: _446  and  _447
REMARK  193  A    between atoms: _447  and  _448
REMARK  194  A    between atoms: _450  and  _452
REMARK  195  A    between atoms: _452  and  _453
REMARK  196  A    between atoms: _452  and  _455
REMARK  197  A    between atoms: _455  and  _456
REMARK  198  A    between atoms: _458  and  _460
REMARK  199  A    between atoms: _460  and  _461
REMARK  200  A    between atoms: _463  and  _465
REMARK  201  A    between atoms: _465  and  _466
REMARK  202  A    between atoms: _468  and  _470
REMARK  203  A    between atoms: _470  and  _471
REMARK  204  A    between atoms: _473  and  _475
REMARK  205  A    between atoms: _475  and  _476
REMARK  206  A    between atoms: _478  and  _480
REMARK  207  A    between atoms: _480  and  _481
REMARK  208  A    between atoms: _483  and  _485
REMARK  209  A    between atoms: _485  and  _486
REMARK  210  A    between atoms: _485  and  _488
REMARK  211  A    between atoms: _490  and  _492
REMARK  212  A    between atoms: _492  and  _493
REMARK  213  A    between atoms: _492  and  _495
REMARK  214  A    between atoms: _495  and  _496
REMARK                            x       y       z     vdW  Elec       q    Type
REMARK                         _______ _______ _______ _____ _____    ______ ____
ROOT
ATOM      1  CA  VAL A   1      22.420  17.310  53.854  0.00  0.00    +0.133 C 
ENDROOT
BRANCH   1   2
ATOM      2  CB  VAL A   1      22.312  18.719  53.286  0.00  0.00    +0.023 C 
ATOM      3  CG2 VAL A   1      22.600  19.761  54.421  0.00  0.00    +0.002 C 
ATOM      4  CG1 VAL A   1      20.909  18.911  52.649  0.00  0.00    +0.002 C 
ENDBRANCH   1   2
BRANCH   1   5
ATOM      5  N   VAL A   1      21.530  17.139  55.006  0.00  0.00    -0.239 NA
ATOM      6  H   VAL A   1      21.644  17.762  55.831  0.00  0.00    +0.142 HD
ENDBRANCH   1   5
BRANCH   1   7
ATOM      7  C   VAL A   1      23.912  17.021  54.102  0.00  0.00    +0.224 C 
ATOM      8  O   VAL A   1      24.764  17.354  53.270  0.00  0.00    -0.287 OA
ENDBRANCH   1   7
TORSDOF 3
REMARK  Name = ../refined-set-2016/2oi2/2oi2_pocket.pdb
REMARK  214 active torsions:
REMARK  status: ('A' for Active; 'I' for Inactive)
REMARK    1  A    between atoms: _1  and  _3
REMARK    2  A    between atoms: _3  and  _4
REMARK    3  A    between atoms: _3  and  _6
REMARK    4  A    between atoms: _6  and  _7
REMARK    5  A    between atoms: _9  and  _11
REMARK    6  A    between atoms: _11  and  _12
REMARK    7  A    between atoms: _11  and  _14
REMARK    8  A    between atoms: _14  and  _15
REMARK    9  A    between atoms: _15  and  _16
REMARK   10  A    between atoms: _16  and  _17
REMARK   11  A    between atoms: _17  and  _18
REMARK   12  A    between atoms: _22  and  _24
REMARK   13  A    between atoms: _24  and  _25
REMARK   14  A    between atoms: _24  and  _27
REMARK   15  A    between atoms: _27  and  _28
REMARK   16  A    between atoms: _31  and  _33
REMARK   17  A    between atoms: _33  and  _34
REMARK   18  A    between atoms: _33  and  _36
REMARK   19  A    between atoms: _36  and  _37
REMARK   20  A    between atoms: _40  and  _42
REMARK   21  A    between atoms: _42  and  _43
REMARK   22  A    between atoms: _45  and  _47
REMARK   23  A    between atoms: _47  and  _48
REMARK   24  A    between atoms: _47  and  _50
REMARK   25  A    between atoms: _50  and  _51
REMARK   26  A    between atoms: _51  and  _52
REMARK   27  A    between atoms: _55  and  _57
REMARK   28  A    between atoms: _57  and  _58
REMARK   29  A    between atoms: _57  and  _60
REMARK   30  A    between atoms: _60  and  _61
REMARK   31  A    between atoms: _66  and  _68
REMARK   32  A    between atoms: _68  and  _69
REMARK   33  A    between atoms: _72  and  _74
REMARK   34  A    between atoms: _74  and  _75
REMARK   35  A    between atoms: _74  and  _77
REMARK   36  A    between atoms: _80  and  _82
REMARK   37  A    between atoms: _82  and  _83
REMARK   38  A    between atoms: _82  and  _85
REMARK   39  A    between atoms: _88  and  _90
REMARK   40  A    between atoms: _90  and  _91
REMARK   41  A    between atoms: _90  and  _93
REMARK   42  A    between atoms: _93  and  _94
REMARK   43  A    between atoms: _99  and  _100
REMARK   44  A    between atoms: _102  and  _104
REMARK   45  A    between atoms: _104  and  _105
REMARK   46  A    between atoms: _107  and  _109
REMARK   47  A    between atoms: _109  and  _110
REMARK   48  A    between atoms: _113  and  _115
REMARK   49  A    between atoms: _115  and  _116
REMARK   50  A    between atoms: _115  and  _118
REMARK   51  A    between atoms: _118  and  _119
REMARK   52  A    between atoms: _121  and  _123
REMARK   53  A    between atoms: _123  and  _124
REMARK   54  A    between atoms: _123  and  _126
REMARK   55  A    between atoms: _126  and  _127
REMARK   56  A    between atoms: _130  and  _132
REMARK   57  A    between atoms: _132  and  _133
REMARK   58  A    between atoms: _135  and  _137
REMARK   59  A    between atoms: _137  and  _138
REMARK   60  A    between atoms: _137  and  _140
REMARK   61  A    between atoms: _140  and  _141
REMARK   62  A    between atoms: _141  and  _142
REMARK   63  A    between atoms: _144  and  _146
REMARK   64  A    between atoms: _146  and  _147
REMARK   65  A    between atoms: _149  and  _151
REMARK   66  A    between atoms: _151  and  _152
REMARK   67  A    between atoms: _151  and  _154
REMARK   68  A    between atoms: _154  and  _155
REMARK   69  A    between atoms: _157  and  _159
REMARK   70  A    between atoms: _159  and  _160
REMARK   71  A    between atoms: _159  and  _162
REMARK   72  A    between atoms: _162  and  _163
REMARK   73  A    between atoms: _165  and  _167
REMARK   74  A    between atoms: _167  and  _168
REMARK   75  A    between atoms: _171  and  _173
REMARK   76  A    between atoms: _173  and  _174
REMARK   77  A    between atoms: _177  and  _179
REMARK   78  A    between atoms: _179  and  _180
REMARK   79  A    between atoms: _179  and  _182
REMARK   80  A    between atoms: _182  and  _183
REMARK   81  A    between atoms: _186  and  _188
REMARK   82  A    between atoms: _188  and  _189
REMARK   83  A    between atoms: _188  and  _191
REMARK   84  A    between atoms: _191  and  _192
REMARK   85  A    between atoms: _194  and  _196
REMARK   86  A    between atoms: _196  and  _197
REMARK   87  A    between atoms: _196  and  _199
REMARK   88  A    between atoms: _199  and  _200
REMARK   89  A    between atoms: _205  and  _207
REMARK   90  A    between atoms: _207  and  _208
REMARK   91  A    between atoms: _207  and  _210
REMARK   92  A    between atoms: _210  and  _211
REMARK   93  A    between atoms: _211  and  _212
REMARK   94  A    between atoms: _215  and  _217
REMARK   95  A    between atoms: _217  and  _218
REMARK   96  A    between atoms: _217  and  _220
REMARK   97  A    between atoms: _220  and  _221
REMARK   98  A    between atoms: _221  and  _222
REMARK   99  A    between atoms: _224  and  _226
REMARK  100  A    between atoms: _226  and  _227
REMARK  101  A    between atoms: _226  and  _229
REMARK  102  A    between atoms: _229  and  _230
REMARK  103  A    between atoms: _236  and  _237
REMARK  104  A    between atoms: _242  and  _244
REMARK  105  A    between atoms: _244  and  _245
REMARK  106  A    between atoms: _244  and  _247
REMARK  107  A    between atoms: _247  and  _248
REMARK  108  A    between atoms: _250  and  _252
REMARK  109  A    between atoms: _252  and  _253
REMARK  110  A    between atoms: _255  and  _257
REMARK  111  A    between atoms: _257  and  _258
REMARK  112  A    between atoms: _257  and  _260
REMARK  113  A    between atoms: _260  and  _261
REMARK  114  A    between atoms: _264  and  _266
REMARK  115  A    between atoms: _266  and  _267
REMARK  116  A    between atoms: _266  and  _269
REMARK  117  A    between atoms: _269  and  _270
REMARK  118  A    between atoms: _270  and  _272
REMARK  119  A    between atoms: _272  and  MG_501
REMARK  120  A    between atoms: _273  and  _275
REMARK  121  A    between atoms: _275  and  _276
REMARK  122  A    between atoms: _279  and  _281
REMARK  123  A    between atoms: _281  and  _282
REMARK  124  A    between atoms: _281  and  _284
REMARK  125  A    between atoms: _284  and  _285
REMARK  126  A    between atoms: _285  and  _286
REMARK  127  A    between atoms: _286  and  _287
REMARK  128  A    between atoms: _287  and  _288
REMARK  129  A    between atoms: _292  and  _294
REMARK  130  A    between atoms: _294  and  _295
REMARK  131  A    between atoms: _294  and  _297
REMARK  132  A    between atoms: _297  and  _298
REMARK  133  A    between atoms: _301  and  _303
REMARK  134  A    between atoms: _303  and  _304
REMARK  135  A    between atoms: _303  and  _306
REMARK  136  A    between atoms: _308  and  _310
REMARK  137  A    between atoms: _310  and  _311
REMARK  138  A    between atoms: _310  and  _313
REMARK  139  A    between atoms: _313  and  _314
REMARK  140  A    between atoms: _320  and  _322
REMARK  141  A    between atoms: _322  and  _323
REMARK  142  A    between atoms: _322  and  _325
REMARK  143  A    between atoms: _325  and  _326
REMARK  144  A    between atoms: _326  and  _327
REMARK  145  A    between atoms: _327  and  _328
REMARK  146  A    between atoms: _328  and  _329
REMARK  147  A    between atoms: _333  and  _335
REMARK  148  A    between atoms: _335  and  _336
REMARK  149  A    between atoms: _335  and  _338
REMARK  150  A    between atoms: _338  and  _339
REMARK  151  A    between atoms: _344  and  _345
REMARK  152  A    between atoms: _347  and  _349
REMARK  153  A    between atoms: _349  and  _350
REMARK  154  A    between atoms: _352  and  _354
REMARK  155  A    between atoms: _354  and  _355
REMARK  156  A    between atoms: _354  and  _357
REMARK  157  A    between atoms: _357  and  _358
REMARK  158  A    between atoms: _363  and  _365
REMARK  159  A    between atoms: _365  and  _366
REMARK  160  A    between atoms: _365  and  _368
REMARK  161  A    between atoms: _368  and  _369
REMARK  162  A    between atoms: _372  and  _374
REMARK  163  A    between atoms: _374  and  _375
REMARK  164  A    between atoms: _374  and  _377
REMARK  165  A    between atoms: _377  and  _378
REMARK  166  A    between atoms: _378  and  _379
REMARK  167  A    between atoms: _379  and  _380
REMARK  168  A    between atoms: _389  and  _391
REMARK  169  A    between atoms: _391  and  _392
REMARK  170  A    between atoms: _395  and  _397
REMARK  171  A    between atoms: _397  and  _398
REMARK  172  A    between atoms: _397  and  _400
REMARK  173  A    between atoms: _400  and  _401
REMARK  174  A    between atoms: _404  and  _406
REMARK  175  A    between atoms: _406  and  _407
REMARK  176  A    between atoms: _406  and  _409
REMARK  177  A    between atoms: _409  and  _410
REMARK  178  A    between atoms: _410  and  _411
REMARK  179  A    between atoms: _416  and  _418
REMARK  180  A    between atoms: _418  and  _419
REMARK  181  A    between atoms: _418  and  _421
REMARK  182  A    between atoms: _424  and  _426
REMARK  183  A    between atoms: _426  and  _427
REMARK  184  A    between atoms: _426  and  _429
REMARK  185  A    between atoms: _429  and  _430
REMARK  186  A    between atoms: _433  and  _435
REMARK  187  A    between atoms: _435  and  _436
REMARK  188  A    between atoms: _435  and  _438
REMARK  189  A    between atoms: _441  and  _443
REMARK  190  A    between atoms: _443  and  _444
REMARK  191  A    between atoms: _443  and  _446
REMARK  192  A    between atoms: _446  and  _447
REMARK  193  A    between atoms: _447  and  _448
REMARK  194  A    between atoms: _450  and  _452
REMARK  195  A    between atoms: _452  and  _453
REMARK  196  A    between atoms: _452  and  _455
REMARK  197  A    between atoms: _455  and  _456
REMARK  198  A    between atoms: _458  and  _460
REMARK  199  A    between atoms: _460  and  _461
REMARK  200  A    between atoms: _463  and  _465
REMARK  201  A    between atoms: _465  and  _466
REMARK  202  A    between atoms: _468  and  _470
REMARK  203  A    between atoms: _470  and  _471
REMARK  204  A    between atoms: _473  and  _475
REMARK  205  A    between atoms: _475  and  _476
REMARK  206  A    between atoms: _478  and  _480
REMARK  207  A    between atoms: _480  and  _481
REMARK  208  A    between atoms: _483  and  _485
REMARK  209  A    between atoms: _485  and  _486
REMARK  210  A    between atoms: _485  and  _488
REMARK  211  A    between atoms: _490  and  _492
REMARK  212  A    between atoms: _492  and  _493
REMARK  213  A    between atoms: _492  and  _495
REMARK  214  A    between atoms: _495  and  _496
REMARK                            x       y       z     vdW  Elec       q    Type
REMARK                         _______ _______ _______ _____ _____    ______ ____
ROOT
ATOM      1  C   SER A   2      30.926  22.622  52.064  0.00  0.00    +0.000 C 
ATOM      2  O   SER A   2      31.386  21.602  51.605  0.00  0.00    +0.000 OA
ATOM      3  N   GLY A   3      30.100  23.428  51.375  0.00  0.00    +0.000 N 
ATOM      4  H   GLY A   3      29.730  24.281  51.841  0.00  0.00    +0.000 HD
ENDROOT
BRANCH   1   5
ATOM      5  CA  SER A   2      31.293  23.002  53.501  0.00  0.00    +0.000 C 
BRANCH   5   8
ATOM      6  C   MET A   1      30.861  21.703  55.479  0.00  0.00    +0.000 C 
ATOM      7  O   MET A   1      30.352  22.673  56.014  0.00  0.00    +0.000 OA
ATOM      8  N   SER A   2      31.378  21.767  54.266  0.00  0.00    +0.000 N 
ATOM      9  H   SER A   2      31.847  20.934  53.857  0.00  0.00    +0.000 HD
BRANCH   6  10
ATOM     10  CA  MET A   1      30.947  20.372  56.215  0.00  0.00    +0.000 C 
BRANCH  10  11
ATOM     11  N   MET A   1      30.811  20.719  57.599  0.00  0.00    +0.000 NA
ATOM     12  H   MET A   1      29.876  20.693  58.053  0.00  0.00    +0.000 HD
ENDBRANCH  10  11
BRANCH  10  13
ATOM     13  CB  MET A   1      29.788  19.465  55.811  0.00  0.00    +0.000 C 
BRANCH  13  14
ATOM     14  CG  MET A   1      28.425  20.065  56.086  0.00  0.00    +0.000 C 
BRANCH  14  15
ATOM     15  SD  MET A   1      27.143  19.533  54.891  0.00  0.00    +0.000 S 
ATOM     16  CE  MET A   1      27.273  20.744  53.563  0.00  0.00    +0.000 C 
ENDBRANCH  14  15
ENDBRANCH  13  14
ENDBRANCH  10  13
ENDBRANCH   6  10
ENDBRANCH   5   8
BRANCH   5  17
ATOM     17  CB  SER A   2      32.638  23.738  53.555  0.00  0.00    +0.000 C 
BRANCH  17  18
ATOM     18  OG  SER A   2      32.762  24.726  52.547  0.00  0.00    +0.000 OA
ATOM     19  H   SER A   2      32.043  25.398  52.655  0.00  0.00    +0.000 HD
ENDBRANCH  17  18
ENDBRANCH   5  17
ENDBRANCH   1   5
BRANCH   3  20
ATOM     20  CA  GLY A   3      29.704  23.152  50.001  0.00  0.00    +0.000 C 
BRANCH  20  21
ATOM     21  C   GLY A   3      28.284  22.627  49.844  0.00  0.00    +0.000 C 
ATOM     22  O   GLY A   3      27.382  22.967  50.610  0.00  0.00    +0.000 OA
ATOM     23  N   GLY A   4      28.088  21.750  48.864  0.00  0.00    +0.000 N 
ATOM     24  H   GLY A   4      28.891  21.454  48.273  0.00  0.00    +0.000 HD
BRANCH  23  25
ATOM     25  CA  GLY A   4      26.766  21.198  48.607  0.00  0.00    +0.000 C 
BRANCH  25  26
ATOM     26  C   GLY A   4      26.208  20.084  49.484  0.00  0.00    +0.000 C 
ATOM     27  N   GLY A   5      27.073  19.443  50.257  0.00  0.00    +0.000 N 
ATOM     28  H   GLY A   5      28.078  19.709  50.234  0.00  0.00    +0.000 HD
ATOM     29  O   GLY A   4      25.010  19.797  49.451  0.00  0.00    +0.000 OA
BRANCH  27  30
ATOM     30  CA  GLY A   5      26.635  18.374  51.135  0.00  0.00    +0.000 C 
BRANCH  30  31
ATOM     31  C   GLY A   5      26.594  17.065  50.397  0.00  0.00    +0.000 C 
ATOM     32  O   GLY A   5      26.991  16.987  49.222  0.00  0.00    +0.000 OA
ENDBRANCH  30  31
ENDBRANCH  27  30
ENDBRANCH  25  26
ENDBRANCH  23  25
ENDBRANCH  20  21
ENDBRANCH   3  20
TORSDOF 15
REMARK  Name = ../refined-set-2016/2oi2/2oi2_pocket.pdb
REMARK  214 active torsions:
REMARK  status: ('A' for Active; 'I' for Inactive)
REMARK    1  A    between atoms: _1  and  _3
REMARK    2  A    between atoms: _3  and  _4
REMARK    3  A    between atoms: _3  and  _6
REMARK    4  A    between atoms: _6  and  _7
REMARK    5  A    between atoms: _9  and  _11
REMARK    6  A    between atoms: _11  and  _12
REMARK    7  A    between atoms: _11  and  _14
REMARK    8  A    between atoms: _14  and  _15
REMARK    9  A    between atoms: _15  and  _16
REMARK   10  A    between atoms: _16  and  _17
REMARK   11  A    between atoms: _17  and  _18
REMARK   12  A    between atoms: _22  and  _24
REMARK   13  A    between atoms: _24  and  _25
REMARK   14  A    between atoms: _24  and  _27
REMARK   15  A    between atoms: _27  and  _28
REMARK   16  A    between atoms: _31  and  _33
REMARK   17  A    between atoms: _33  and  _34
REMARK   18  A    between atoms: _33  and  _36
REMARK   19  A    between atoms: _36  and  _37
REMARK   20  A    between atoms: _40  and  _42
REMARK   21  A    between atoms: _42  and  _43
REMARK   22  A    between atoms: _45  and  _47
REMARK   23  A    between atoms: _47  and  _48
REMARK   24  A    between atoms: _47  and  _50
REMARK   25  A    between atoms: _50  and  _51
REMARK   26  A    between atoms: _51  and  _52
REMARK   27  A    between atoms: _55  and  _57
REMARK   28  A    between atoms: _57  and  _58
REMARK   29  A    between atoms: _57  and  _60
REMARK   30  A    between atoms: _60  and  _61
REMARK   31  A    between atoms: _66  and  _68
REMARK   32  A    between atoms: _68  and  _69
REMARK   33  A    between atoms: _72  and  _74
REMARK   34  A    between atoms: _74  and  _75
REMARK   35  A    between atoms: _74  and  _77
REMARK   36  A    between atoms: _80  and  _82
REMARK   37  A    between atoms: _82  and  _83
REMARK   38  A    between atoms: _82  and  _85
REMARK   39  A    between atoms: _88  and  _90
REMARK   40  A    between atoms: _90  and  _91
REMARK   41  A    between atoms: _90  and  _93
REMARK   42  A    between atoms: _93  and  _94
REMARK   43  A    between atoms: _99  and  _100
REMARK   44  A    between atoms: _102  and  _104
REMARK   45  A    between atoms: _104  and  _105
REMARK   46  A    between atoms: _107  and  _109
REMARK   47  A    between atoms: _109  and  _110
REMARK   48  A    between atoms: _113  and  _115
REMARK   49  A    between atoms: _115  and  _116
REMARK   50  A    between atoms: _115  and  _118
REMARK   51  A    between atoms: _118  and  _119
REMARK   52  A    between atoms: _121  and  _123
REMARK   53  A    between atoms: _123  and  _124
REMARK   54  A    between atoms: _123  and  _126
REMARK   55  A    between atoms: _126  and  _127
REMARK   56  A    between atoms: _130  and  _132
REMARK   57  A    between atoms: _132  and  _133
REMARK   58  A    between atoms: _135  and  _137
REMARK   59  A    between atoms: _137  and  _138
REMARK   60  A    between atoms: _137  and  _140
REMARK   61  A    between atoms: _140  and  _141
REMARK   62  A    between atoms: _141  and  _142
REMARK   63  A    between atoms: _144  and  _146
REMARK   64  A    between atoms: _146  and  _147
REMARK   65  A    between atoms: _149  and  _151
REMARK   66  A    between atoms: _151  and  _152
REMARK   67  A    between atoms: _151  and  _154
REMARK   68  A    between atoms: _154  and  _155
REMARK   69  A    between atoms: _157  and  _159
REMARK   70  A    between atoms: _159  and  _160
REMARK   71  A    between atoms: _159  and  _162
REMARK   72  A    between atoms: _162  and  _163
REMARK   73  A    between atoms: _165  and  _167
REMARK   74  A    between atoms: _167  and  _168
REMARK   75  A    between atoms: _171  and  _173
REMARK   76  A    between atoms: _173  and  _174
REMARK   77  A    between atoms: _177  and  _179
REMARK   78  A    between atoms: _179  and  _180
REMARK   79  A    between atoms: _179  and  _182
REMARK   80  A    between atoms: _182  and  _183
REMARK   81  A    between atoms: _186  and  _188
REMARK   82  A    between atoms: _188  and  _189
REMARK   83  A    between atoms: _188  and  _191
REMARK   84  A    between atoms: _191  and  _192
REMARK   85  A    between atoms: _194  and  _196
REMARK   86  A    between atoms: _196  and  _197
REMARK   87  A    between atoms: _196  and  _199
REMARK   88  A    between atoms: _199  and  _200
REMARK   89  A    between atoms: _205  and  _207
REMARK   90  A    between atoms: _207  and  _208
REMARK   91  A    between atoms: _207  and  _210
REMARK   92  A    between atoms: _210  and  _211
REMARK   93  A    between atoms: _211  and  _212
REMARK   94  A    between atoms: _215  and  _217
REMARK   95  A    between atoms: _217  and  _218
REMARK   96  A    between atoms: _217  and  _220
REMARK   97  A    between atoms: _220  and  _221
REMARK   98  A    between atoms: _221  and  _222
REMARK   99  A    between atoms: _224  and  _226
REMARK  100  A    between atoms: _226  and  _227
REMARK  101  A    between atoms: _226  and  _229
REMARK  102  A    between atoms: _229  and  _230
REMARK  103  A    between atoms: _236  and  _237
REMARK  104  A    between atoms: _242  and  _244
REMARK  105  A    between atoms: _244  and  _245
REMARK  106  A    between atoms: _244  and  _247
REMARK  107  A    between atoms: _247  and  _248
REMARK  108  A    between atoms: _250  and  _252
REMARK  109  A    between atoms: _252  and  _253
REMARK  110  A    between atoms: _255  and  _257
REMARK  111  A    between atoms: _257  and  _258
REMARK  112  A    between atoms: _257  and  _260
REMARK  113  A    between atoms: _260  and  _261
REMARK  114  A    between atoms: _264  and  _266
REMARK  115  A    between atoms: _266  and  _267
REMARK  116  A    between atoms: _266  and  _269
REMARK  117  A    between atoms: _269  and  _270
REMARK  118  A    between atoms: _270  and  _272
REMARK  119  A    between atoms: _272  and  MG_501
REMARK  120  A    between atoms: _273  and  _275
REMARK  121  A    between atoms: _275  and  _276
REMARK  122  A    between atoms: _279  and  _281
REMARK  123  A    between atoms: _281  and  _282
REMARK  124  A    between atoms: _281  and  _284
REMARK  125  A    between atoms: _284  and  _285
REMARK  126  A    between atoms: _285  and  _286
REMARK  127  A    between atoms: _286  and  _287
REMARK  128  A    between atoms: _287  and  _288
REMARK  129  A    between atoms: _292  and  _294
REMARK  130  A    between atoms: _294  and  _295
REMARK  131  A    between atoms: _294  and  _297
REMARK  132  A    between atoms: _297  and  _298
REMARK  133  A    between atoms: _301  and  _303
REMARK  134  A    between atoms: _303  and  _304
REMARK  135  A    between atoms: _303  and  _306
REMARK  136  A    between atoms: _308  and  _310
REMARK  137  A    between atoms: _310  and  _311
REMARK  138  A    between atoms: _310  and  _313
REMARK  139  A    between atoms: _313  and  _314
REMARK  140  A    between atoms: _320  and  _322
REMARK  141  A    between atoms: _322  and  _323
REMARK  142  A    between atoms: _322  and  _325
REMARK  143  A    between atoms: _325  and  _326
REMARK  144  A    between atoms: _326  and  _327
REMARK  145  A    between atoms: _327  and  _328
REMARK  146  A    between atoms: _328  and  _329
REMARK  147  A    between atoms: _333  and  _335
REMARK  148  A    between atoms: _335  and  _336
REMARK  149  A    between atoms: _335  and  _338
REMARK  150  A    between atoms: _338  and  _339
REMARK  151  A    between atoms: _344  and  _345
REMARK  152  A    between atoms: _347  and  _349
REMARK  153  A    between atoms: _349  and  _350
REMARK  154  A    between atoms: _352  and  _354
REMARK  155  A    between atoms: _354  and  _355
REMARK  156  A    between atoms: _354  and  _357
REMARK  157  A    between atoms: _357  and  _358
REMARK  158  A    between atoms: _363  and  _365
REMARK  159  A    between atoms: _365  and  _366
REMARK  160  A    between atoms: _365  and  _368
REMARK  161  A    between atoms: _368  and  _369
REMARK  162  A    between atoms: _372  and  _374
REMARK  163  A    between atoms: _374  and  _375
REMARK  164  A    between atoms: _374  and  _377
REMARK  165  A    between atoms: _377  and  _378
REMARK  166  A    between atoms: _378  and  _379
REMARK  167  A    between atoms: _379  and  _380
REMARK  168  A    between atoms: _389  and  _391
REMARK  169  A    between atoms: _391  and  _392
REMARK  170  A    between atoms: _395  and  _397
REMARK  171  A    between atoms: _397  and  _398
REMARK  172  A    between atoms: _397  and  _400
REMARK  173  A    between atoms: _400  and  _401
REMARK  174  A    between atoms: _404  and  _406
REMARK  175  A    between atoms: _406  and  _407
REMARK  176  A    between atoms: _406  and  _409
REMARK  177  A    between atoms: _409  and  _410
REMARK  178  A    between atoms: _410  and  _411
REMARK  179  A    between atoms: _416  and  _418
REMARK  180  A    between atoms: _418  and  _419
REMARK  181  A    between atoms: _418  and  _421
REMARK  182  A    between atoms: _424  and  _426
REMARK  183  A    between atoms: _426  and  _427
REMARK  184  A    between atoms: _426  and  _429
REMARK  185  A    between atoms: _429  and  _430
REMARK  186  A    between atoms: _433  and  _435
REMARK  187  A    between atoms: _435  and  _436
REMARK  188  A    between atoms: _435  and  _438
REMARK  189  A    between atoms: _441  and  _443
REMARK  190  A    between atoms: _443  and  _444
REMARK  191  A    between atoms: _443  and  _446
REMARK  192  A    between atoms: _446  and  _447
REMARK  193  A    between atoms: _447  and  _448
REMARK  194  A    between atoms: _450  and  _452
REMARK  195  A    between atoms: _452  and  _453
REMARK  196  A    between atoms: _452  and  _455
REMARK  197  A    between atoms: _455  and  _456
REMARK  198  A    between atoms: _458  and  _460
REMARK  199  A    between atoms: _460  and  _461
REMARK  200  A    between atoms: _463  and  _465
REMARK  201  A    between atoms: _465  and  _466
REMARK  202  A    between atoms: _468  and  _470
REMARK  203  A    between atoms: _470  and  _471
REMARK  204  A    between atoms: _473  and  _475
REMARK  205  A    between atoms: _475  and  _476
REMARK  206  A    between atoms: _478  and  _480
REMARK  207  A    between atoms: _480  and  _481
REMARK  208  A    between atoms: _483  and  _485
REMARK  209  A    between atoms: _485  and  _486
REMARK  210  A    between atoms: _485  and  _488
REMARK  211  A    between atoms: _490  and  _492
REMARK  212  A    between atoms: _492  and  _493
REMARK  213  A    between atoms: _492  and  _495
REMARK  214  A    between atoms: _495  and  _496
REMARK                            x       y       z     vdW  Elec       q    Type
REMARK                         _______ _______ _______ _____ _____    ______ ____
ROOT
ATOM      1  C   GLY A   2      33.310  17.110  50.423  0.00  0.00    +0.000 C 
ATOM      2  N   CYS A   3      33.525  18.338  50.910  0.00  0.00    +0.000 N 
ATOM      3  H   CYS A   3      32.942  19.120  50.548  0.00  0.00    +0.000 HD
ATOM      4  O   GLY A   2      33.870  16.111  50.844  0.00  0.00    +0.000 OA
ENDROOT
BRANCH   1   5
ATOM      5  CA  GLY A   2      32.282  16.966  49.331  0.00  0.00    +0.000 C 
BRANCH   5   8
ATOM      6  C   GLY A   1      30.457  15.564  50.065  0.00  0.00    +0.000 C 
ATOM      7  O   GLY A   1      30.063  16.396  50.878  0.00  0.00    +0.000 OA
ATOM      8  N   GLY A   2      31.537  15.725  49.299  0.00  0.00    +0.000 N 
ATOM      9  H   GLY A   2      31.846  14.953  48.674  0.00  0.00    +0.000 HD
BRANCH   6  10
ATOM     10  CA  GLY A   1      29.706  14.271  49.942  0.00  0.00    +0.000 C 
BRANCH  10  11
ATOM     11  N   GLY A   1      28.404  14.588  50.502  0.00  0.00    +0.000 NA
ATOM     12  H   GLY A   1      28.347  15.075  51.419  0.00  0.00    +0.000 HD
ENDBRANCH  10  11
ENDBRANCH   6  10
ENDBRANCH   5   8
ENDBRANCH   1   5
BRANCH   2  13
ATOM     13  CA  CYS A   3      34.536  18.639  51.924  0.00  0.00    +0.000 C 
BRANCH  13  14
ATOM     14  C   CYS A   3      34.093  19.065  53.298  0.00  0.00    +0.000 C 
ATOM     15  O   CYS A   3      32.940  19.382  53.552  0.00  0.00    +0.000 OA
ENDBRANCH  13  14
BRANCH  13  16
ATOM     16  CB  CYS A   3      35.494  19.714  51.414  0.00  0.00    +0.000 C 
ATOM     17  SG  CYS A   3      36.036  19.469  49.731  0.00  0.00    +0.000 S 
ENDBRANCH  13  16
ENDBRANCH   2  13
TORSDOF 7
REMARK  Name = ../refined-set-2016/2oi2/2oi2_pocket.pdb
REMARK  214 active torsions:
REMARK  status: ('A' for Active; 'I' for Inactive)
REMARK    1  A    between atoms: _1  and  _3
REMARK    2  A    between atoms: _3  and  _4
REMARK    3  A    between atoms: _3  and  _6
REMARK    4  A    between atoms: _6  and  _7
REMARK    5  A    between atoms: _9  and  _11
REMARK    6  A    between atoms: _11  and  _12
REMARK    7  A    between atoms: _11  and  _14
REMARK    8  A    between atoms: _14  and  _15
REMARK    9  A    between atoms: _15  and  _16
REMARK   10  A    between atoms: _16  and  _17
REMARK   11  A    between atoms: _17  and  _18
REMARK   12  A    between atoms: _22  and  _24
REMARK   13  A    between atoms: _24  and  _25
REMARK   14  A    between atoms: _24  and  _27
REMARK   15  A    between atoms: _27  and  _28
REMARK   16  A    between atoms: _31  and  _33
REMARK   17  A    between atoms: _33  and  _34
REMARK   18  A    between atoms: _33  and  _36
REMARK   19  A    between atoms: _36  and  _37
REMARK   20  A    between atoms: _40  and  _42
REMARK   21  A    between atoms: _42  and  _43
REMARK   22  A    between atoms: _45  and  _47
REMARK   23  A    between atoms: _47  and  _48
REMARK   24  A    between atoms: _47  and  _50
REMARK   25  A    between atoms: _50  and  _51
REMARK   26  A    between atoms: _51  and  _52
REMARK   27  A    between atoms: _55  and  _57
REMARK   28  A    between atoms: _57  and  _58
REMARK   29  A    between atoms: _57  and  _60
REMARK   30  A    between atoms: _60  and  _61
REMARK   31  A    between atoms: _66  and  _68
REMARK   32  A    between atoms: _68  and  _69
REMARK   33  A    between atoms: _72  and  _74
REMARK   34  A    between atoms: _74  and  _75
REMARK   35  A    between atoms: _74  and  _77
REMARK   36  A    between atoms: _80  and  _82
REMARK   37  A    between atoms: _82  and  _83
REMARK   38  A    between atoms: _82  and  _85
REMARK   39  A    between atoms: _88  and  _90
REMARK   40  A    between atoms: _90  and  _91
REMARK   41  A    between atoms: _90  and  _93
REMARK   42  A    between atoms: _93  and  _94
REMARK   43  A    between atoms: _99  and  _100
REMARK   44  A    between atoms: _102  and  _104
REMARK   45  A    between atoms: _104  and  _105
REMARK   46  A    between atoms: _107  and  _109
REMARK   47  A    between atoms: _109  and  _110
REMARK   48  A    between atoms: _113  and  _115
REMARK   49  A    between atoms: _115  and  _116
REMARK   50  A    between atoms: _115  and  _118
REMARK   51  A    between atoms: _118  and  _119
REMARK   52  A    between atoms: _121  and  _123
REMARK   53  A    between atoms: _123  and  _124
REMARK   54  A    between atoms: _123  and  _126
REMARK   55  A    between atoms: _126  and  _127
REMARK   56  A    between atoms: _130  and  _132
REMARK   57  A    between atoms: _132  and  _133
REMARK   58  A    between atoms: _135  and  _137
REMARK   59  A    between atoms: _137  and  _138
REMARK   60  A    between atoms: _137  and  _140
REMARK   61  A    between atoms: _140  and  _141
REMARK   62  A    between atoms: _141  and  _142
REMARK   63  A    between atoms: _144  and  _146
REMARK   64  A    between atoms: _146  and  _147
REMARK   65  A    between atoms: _149  and  _151
REMARK   66  A    between atoms: _151  and  _152
REMARK   67  A    between atoms: _151  and  _154
REMARK   68  A    between atoms: _154  and  _155
REMARK   69  A    between atoms: _157  and  _159
REMARK   70  A    between atoms: _159  and  _160
REMARK   71  A    between atoms: _159  and  _162
REMARK   72  A    between atoms: _162  and  _163
REMARK   73  A    between atoms: _165  and  _167
REMARK   74  A    between atoms: _167  and  _168
REMARK   75  A    between atoms: _171  and  _173
REMARK   76  A    between atoms: _173  and  _174
REMARK   77  A    between atoms: _177  and  _179
REMARK   78  A    between atoms: _179  and  _180
REMARK   79  A    between atoms: _179  and  _182
REMARK   80  A    between atoms: _182  and  _183
REMARK   81  A    between atoms: _186  and  _188
REMARK   82  A    between atoms: _188  and  _189
REMARK   83  A    between atoms: _188  and  _191
REMARK   84  A    between atoms: _191  and  _192
REMARK   85  A    between atoms: _194  and  _196
REMARK   86  A    between atoms: _196  and  _197
REMARK   87  A    between atoms: _196  and  _199
REMARK   88  A    between atoms: _199  and  _200
REMARK   89  A    between atoms: _205  and  _207
REMARK   90  A    between atoms: _207  and  _208
REMARK   91  A    between atoms: _207  and  _210
REMARK   92  A    between atoms: _210  and  _211
REMARK   93  A    between atoms: _211  and  _212
REMARK   94  A    between atoms: _215  and  _217
REMARK   95  A    between atoms: _217  and  _218
REMARK   96  A    between atoms: _217  and  _220
REMARK   97  A    between atoms: _220  and  _221
REMARK   98  A    between atoms: _221  and  _222
REMARK   99  A    between atoms: _224  and  _226
REMARK  100  A    between atoms: _226  and  _227
REMARK  101  A    between atoms: _226  and  _229
REMARK  102  A    between atoms: _229  and  _230
REMARK  103  A    between atoms: _236  and  _237
REMARK  104  A    between atoms: _242  and  _244
REMARK  105  A    between atoms: _244  and  _245
REMARK  106  A    between atoms: _244  and  _247
REMARK  107  A    between atoms: _247  and  _248
REMARK  108  A    between atoms: _250  and  _252
REMARK  109  A    between atoms: _252  and  _253
REMARK  110  A    between atoms: _255  and  _257
REMARK  111  A    between atoms: _257  and  _258
REMARK  112  A    between atoms: _257  and  _260
REMARK  113  A    between atoms: _260  and  _261
REMARK  114  A    between atoms: _264  and  _266
REMARK  115  A    between atoms: _266  and  _267
REMARK  116  A    between atoms: _266  and  _269
REMARK  117  A    between atoms: _269  and  _270
REMARK  118  A    between atoms: _270  and  _272
REMARK  119  A    between atoms: _272  and  MG_501
REMARK  120  A    between atoms: _273  and  _275
REMARK  121  A    between atoms: _275  and  _276
REMARK  122  A    between atoms: _279  and  _281
REMARK  123  A    between atoms: _281  and  _282
REMARK  124  A    between atoms: _281  and  _284
REMARK  125  A    between atoms: _284  and  _285
REMARK  126  A    between atoms: _285  and  _286
REMARK  127  A    between atoms: _286  and  _287
REMARK  128  A    between atoms: _287  and  _288
REMARK  129  A    between atoms: _292  and  _294
REMARK  130  A    between atoms: _294  and  _295
REMARK  131  A    between atoms: _294  and  _297
REMARK  132  A    between atoms: _297  and  _298
REMARK  133  A    between atoms: _301  and  _303
REMARK  134  A    between atoms: _303  and  _304
REMARK  135  A    between atoms: _303  and  _306
REMARK  136  A    between atoms: _308  and  _310
REMARK  137  A    between atoms: _310  and  _311
REMARK  138  A    between atoms: _310  and  _313
REMARK  139  A    between atoms: _313  and  _314
REMARK  140  A    between atoms: _320  and  _322
REMARK  141  A    between atoms: _322  and  _323
REMARK  142  A    between atoms: _322  and  _325
REMARK  143  A    between atoms: _325  and  _326
REMARK  144  A    between atoms: _326  and  _327
REMARK  145  A    between atoms: _327  and  _328
REMARK  146  A    between atoms: _328  and  _329
REMARK  147  A    between atoms: _333  and  _335
REMARK  148  A    between atoms: _335  and  _336
REMARK  149  A    between atoms: _335  and  _338
REMARK  150  A    between atoms: _338  and  _339
REMARK  151  A    between atoms: _344  and  _345
REMARK  152  A    between atoms: _347  and  _349
REMARK  153  A    between atoms: _349  and  _350
REMARK  154  A    between atoms: _352  and  _354
REMARK  155  A    between atoms: _354  and  _355
REMARK  156  A    between atoms: _354  and  _357
REMARK  157  A    between atoms: _357  and  _358
REMARK  158  A    between atoms: _363  and  _365
REMARK  159  A    between atoms: _365  and  _366
REMARK  160  A    between atoms: _365  and  _368
REMARK  161  A    between atoms: _368  and  _369
REMARK  162  A    between atoms: _372  and  _374
REMARK  163  A    between atoms: _374  and  _375
REMARK  164  A    between atoms: _374  and  _377
REMARK  165  A    between atoms: _377  and  _378
REMARK  166  A    between atoms: _378  and  _379
REMARK  167  A    between atoms: _379  and  _380
REMARK  168  A    between atoms: _389  and  _391
REMARK  169  A    between atoms: _391  and  _392
REMARK  170  A    between atoms: _395  and  _397
REMARK  171  A    between atoms: _397  and  _398
REMARK  172  A    between atoms: _397  and  _400
REMARK  173  A    between atoms: _400  and  _401
REMARK  174  A    between atoms: _404  and  _406
REMARK  175  A    between atoms: _406  and  _407
REMARK  176  A    between atoms: _406  and  _409
REMARK  177  A    between atoms: _409  and  _410
REMARK  178  A    between atoms: _410  and  _411
REMARK  179  A    between atoms: _416  and  _418
REMARK  180  A    between atoms: _418  and  _419
REMARK  181  A    between atoms: _418  and  _421
REMARK  182  A    between atoms: _424  and  _426
REMARK  183  A    between atoms: _426  and  _427
REMARK  184  A    between atoms: _426  and  _429
REMARK  185  A    between atoms: _429  and  _430
REMARK  186  A    between atoms: _433  and  _435
REMARK  187  A    between atoms: _435  and  _436
REMARK  188  A    between atoms: _435  and  _438
REMARK  189  A    between atoms: _441  and  _443
REMARK  190  A    between atoms: _443  and  _444
REMARK  191  A    between atoms: _443  and  _446
REMARK  192  A    between atoms: _446  and  _447
REMARK  193  A    between atoms: _447  and  _448
REMARK  194  A    between atoms: _450  and  _452
REMARK  195  A    between atoms: _452  and  _453
REMARK  196  A    between atoms: _452  and  _455
REMARK  197  A    between atoms: _455  and  _456
REMARK  198  A    between atoms: _458  and  _460
REMARK  199  A    between atoms: _460  and  _461
REMARK  200  A    between atoms: _463  and  _465
REMARK  201  A    between atoms: _465  and  _466
REMARK  202  A    between atoms: _468  and  _470
REMARK  203  A    between atoms: _470  and  _471
REMARK  204  A    between atoms: _473  and  _475
REMARK  205  A    between atoms: _475  and  _476
REMARK  206  A    between atoms: _478  and  _480
REMARK  207  A    between atoms: _480  and  _481
REMARK  208  A    between atoms: _483  and  _485
REMARK  209  A    between atoms: _485  and  _486
REMARK  210  A    between atoms: _485  and  _488
REMARK  211  A    between atoms: _490  and  _492
REMARK  212  A    between atoms: _492  and  _493
REMARK  213  A    between atoms: _492  and  _495
REMARK  214  A    between atoms: _495  and  _496
REMARK                            x       y       z     vdW  Elec       q    Type
REMARK                         _______ _______ _______ _____ _____    ______ ____
ROOT
ATOM      1  CB  ASN A   1      23.585  34.772  39.407  0.00  0.00    +0.000 C 
ENDROOT
BRANCH   1   2
ATOM      2  CG  ASN A   1      22.601  33.883  40.189  0.00  0.00    +0.000 C 
ATOM      3  OD1 ASN A   1      21.696  34.364  40.892  0.00  0.00    +0.000 OA
ATOM      4  ND2 ASN A   1      22.793  32.560  40.069  0.00  0.00    +0.000 N 
ATOM      5 HD21 ASN A   1      22.172  31.896  40.575  0.00  0.00    +0.000 HD
ATOM      6 HD22 ASN A   1      23.563  32.198  39.470  0.00  0.00    +0.000 HD
ENDBRANCH   1   2
BRANCH   1   7
ATOM      7  CA  ASN A   1      23.184  36.268  39.390  0.00  0.00    +0.000 C 
BRANCH   7   8
ATOM      8  N   ASN A   1      21.901  36.480  38.728  0.00  0.00    +0.000 NA
ATOM      9  H   ASN A   1      21.117  36.896  39.271  0.00  0.00    +0.000 HD
ENDBRANCH   7   8
BRANCH   7  10
ATOM     10  C   ASN A   1      24.334  37.054  38.810  0.00  0.00    +0.000 C 
ATOM     11  O   ASN A   1      25.480  36.770  39.104  0.00  0.00    +0.000 OA
ENDBRANCH   7  10
ENDBRANCH   1   7
TORSDOF 4
REMARK  Name = ../refined-set-2016/2oi2/2oi2_pocket.pdb
REMARK  214 active torsions:
REMARK  status: ('A' for Active; 'I' for Inactive)
REMARK    1  A    between atoms: _1  and  _3
REMARK    2  A    between atoms: _3  and  _4
REMARK    3  A    between atoms: _3  and  _6
REMARK    4  A    between atoms: _6  and  _7
REMARK    5  A    between atoms: _9  and  _11
REMARK    6  A    between atoms: _11  and  _12
REMARK    7  A    between atoms: _11  and  _14
REMARK    8  A    between atoms: _14  and  _15
REMARK    9  A    between atoms: _15  and  _16
REMARK   10  A    between atoms: _16  and  _17
REMARK   11  A    between atoms: _17  and  _18
REMARK   12  A    between atoms: _22  and  _24
REMARK   13  A    between atoms: _24  and  _25
REMARK   14  A    between atoms: _24  and  _27
REMARK   15  A    between atoms: _27  and  _28
REMARK   16  A    between atoms: _31  and  _33
REMARK   17  A    between atoms: _33  and  _34
REMARK   18  A    between atoms: _33  and  _36
REMARK   19  A    between atoms: _36  and  _37
REMARK   20  A    between atoms: _40  and  _42
REMARK   21  A    between atoms: _42  and  _43
REMARK   22  A    between atoms: _45  and  _47
REMARK   23  A    between atoms: _47  and  _48
REMARK   24  A    between atoms: _47  and  _50
REMARK   25  A    between atoms: _50  and  _51
REMARK   26  A    between atoms: _51  and  _52
REMARK   27  A    between atoms: _55  and  _57
REMARK   28  A    between atoms: _57  and  _58
REMARK   29  A    between atoms: _57  and  _60
REMARK   30  A    between atoms: _60  and  _61
REMARK   31  A    between atoms: _66  and  _68
REMARK   32  A    between atoms: _68  and  _69
REMARK   33  A    between atoms: _72  and  _74
REMARK   34  A    between atoms: _74  and  _75
REMARK   35  A    between atoms: _74  and  _77
REMARK   36  A    between atoms: _80  and  _82
REMARK   37  A    between atoms: _82  and  _83
REMARK   38  A    between atoms: _82  and  _85
REMARK   39  A    between atoms: _88  and  _90
REMARK   40  A    between atoms: _90  and  _91
REMARK   41  A    between atoms: _90  and  _93
REMARK   42  A    between atoms: _93  and  _94
REMARK   43  A    between atoms: _99  and  _100
REMARK   44  A    between atoms: _102  and  _104
REMARK   45  A    between atoms: _104  and  _105
REMARK   46  A    between atoms: _107  and  _109
REMARK   47  A    between atoms: _109  and  _110
REMARK   48  A    between atoms: _113  and  _115
REMARK   49  A    between atoms: _115  and  _116
REMARK   50  A    between atoms: _115  and  _118
REMARK   51  A    between atoms: _118  and  _119
REMARK   52  A    between atoms: _121  and  _123
REMARK   53  A    between atoms: _123  and  _124
REMARK   54  A    between atoms: _123  and  _126
REMARK   55  A    between atoms: _126  and  _127
REMARK   56  A    between atoms: _130  and  _132
REMARK   57  A    between atoms: _132  and  _133
REMARK   58  A    between atoms: _135  and  _137
REMARK   59  A    between atoms: _137  and  _138
REMARK   60  A    between atoms: _137  and  _140
REMARK   61  A    between atoms: _140  and  _141
REMARK   62  A    between atoms: _141  and  _142
REMARK   63  A    between atoms: _144  and  _146
REMARK   64  A    between atoms: _146  and  _147
REMARK   65  A    between atoms: _149  and  _151
REMARK   66  A    between atoms: _151  and  _152
REMARK   67  A    between atoms: _151  and  _154
REMARK   68  A    between atoms: _154  and  _155
REMARK   69  A    between atoms: _157  and  _159
REMARK   70  A    between atoms: _159  and  _160
REMARK   71  A    between atoms: _159  and  _162
REMARK   72  A    between atoms: _162  and  _163
REMARK   73  A    between atoms: _165  and  _167
REMARK   74  A    between atoms: _167  and  _168
REMARK   75  A    between atoms: _171  and  _173
REMARK   76  A    between atoms: _173  and  _174
REMARK   77  A    between atoms: _177  and  _179
REMARK   78  A    between atoms: _179  and  _180
REMARK   79  A    between atoms: _179  and  _182
REMARK   80  A    between atoms: _182  and  _183
REMARK   81  A    between atoms: _186  and  _188
REMARK   82  A    between atoms: _188  and  _189
REMARK   83  A    between atoms: _188  and  _191
REMARK   84  A    between atoms: _191  and  _192
REMARK   85  A    between atoms: _194  and  _196
REMARK   86  A    between atoms: _196  and  _197
REMARK   87  A    between atoms: _196  and  _199
REMARK   88  A    between atoms: _199  and  _200
REMARK   89  A    between atoms: _205  and  _207
REMARK   90  A    between atoms: _207  and  _208
REMARK   91  A    between atoms: _207  and  _210
REMARK   92  A    between atoms: _210  and  _211
REMARK   93  A    between atoms: _211  and  _212
REMARK   94  A    between atoms: _215  and  _217
REMARK   95  A    between atoms: _217  and  _218
REMARK   96  A    between atoms: _217  and  _220
REMARK   97  A    between atoms: _220  and  _221
REMARK   98  A    between atoms: _221  and  _222
REMARK   99  A    between atoms: _224  and  _226
REMARK  100  A    between atoms: _226  and  _227
REMARK  101  A    between atoms: _226  and  _229
REMARK  102  A    between atoms: _229  and  _230
REMARK  103  A    between atoms: _236  and  _237
REMARK  104  A    between atoms: _242  and  _244
REMARK  105  A    between atoms: _244  and  _245
REMARK  106  A    between atoms: _244  and  _247
REMARK  107  A    between atoms: _247  and  _248
REMARK  108  A    between atoms: _250  and  _252
REMARK  109  A    between atoms: _252  and  _253
REMARK  110  A    between atoms: _255  and  _257
REMARK  111  A    between atoms: _257  and  _258
REMARK  112  A    between atoms: _257  and  _260
REMARK  113  A    between atoms: _260  and  _261
REMARK  114  A    between atoms: _264  and  _266
REMARK  115  A    between atoms: _266  and  _267
REMARK  116  A    between atoms: _266  and  _269
REMARK  117  A    between atoms: _269  and  _270
REMARK  118  A    between atoms: _270  and  _272
REMARK  119  A    between atoms: _272  and  MG_501
REMARK  120  A    between atoms: _273  and  _275
REMARK  121  A    between atoms: _275  and  _276
REMARK  122  A    between atoms: _279  and  _281
REMARK  123  A    between atoms: _281  and  _282
REMARK  124  A    between atoms: _281  and  _284
REMARK  125  A    between atoms: _284  and  _285
REMARK  126  A    between atoms: _285  and  _286
REMARK  127  A    between atoms: _286  and  _287
REMARK  128  A    between atoms: _287  and  _288
REMARK  129  A    between atoms: _292  and  _294
REMARK  130  A    between atoms: _294  and  _295
REMARK  131  A    between atoms: _294  and  _297
REMARK  132  A    between atoms: _297  and  _298
REMARK  133  A    between atoms: _301  and  _303
REMARK  134  A    between atoms: _303  and  _304
REMARK  135  A    between atoms: _303  and  _306
REMARK  136  A    between atoms: _308  and  _310
REMARK  137  A    between atoms: _310  and  _311
REMARK  138  A    between atoms: _310  and  _313
REMARK  139  A    between atoms: _313  and  _314
REMARK  140  A    between atoms: _320  and  _322
REMARK  141  A    between atoms: _322  and  _323
REMARK  142  A    between atoms: _322  and  _325
REMARK  143  A    between atoms: _325  and  _326
REMARK  144  A    between atoms: _326  and  _327
REMARK  145  A    between atoms: _327  and  _328
REMARK  146  A    between atoms: _328  and  _329
REMARK  147  A    between atoms: _333  and  _335
REMARK  148  A    between atoms: _335  and  _336
REMARK  149  A    between atoms: _335  and  _338
REMARK  150  A    between atoms: _338  and  _339
REMARK  151  A    between atoms: _344  and  _345
REMARK  152  A    between atoms: _347  and  _349
REMARK  153  A    between atoms: _349  and  _350
REMARK  154  A    between atoms: _352  and  _354
REMARK  155  A    between atoms: _354  and  _355
REMARK  156  A    between atoms: _354  and  _357
REMARK  157  A    between atoms: _357  and  _358
REMARK  158  A    between atoms: _363  and  _365
REMARK  159  A    between atoms: _365  and  _366
REMARK  160  A    between atoms: _365  and  _368
REMARK  161  A    between atoms: _368  and  _369
REMARK  162  A    between atoms: _372  and  _374
REMARK  163  A    between atoms: _374  and  _375
REMARK  164  A    between atoms: _374  and  _377
REMARK  165  A    between atoms: _377  and  _378
REMARK  166  A    between atoms: _378  and  _379
REMARK  167  A    between atoms: _379  and  _380
REMARK  168  A    between atoms: _389  and  _391
REMARK  169  A    between atoms: _391  and  _392
REMARK  170  A    between atoms: _395  and  _397
REMARK  171  A    between atoms: _397  and  _398
REMARK  172  A    between atoms: _397  and  _400
REMARK  173  A    between atoms: _400  and  _401
REMARK  174  A    between atoms: _404  and  _406
REMARK  175  A    between atoms: _406  and  _407
REMARK  176  A    between atoms: _406  and  _409
REMARK  177  A    between atoms: _409  and  _410
REMARK  178  A    between atoms: _410  and  _411
REMARK  179  A    between atoms: _416  and  _418
REMARK  180  A    between atoms: _418  and  _419
REMARK  181  A    between atoms: _418  and  _421
REMARK  182  A    between atoms: _424  and  _426
REMARK  183  A    between atoms: _426  and  _427
REMARK  184  A    between atoms: _426  and  _429
REMARK  185  A    between atoms: _429  and  _430
REMARK  186  A    between atoms: _433  and  _435
REMARK  187  A    between atoms: _435  and  _436
REMARK  188  A    between atoms: _435  and  _438
REMARK  189  A    between atoms: _441  and  _443
REMARK  190  A    between atoms: _443  and  _444
REMARK  191  A    between atoms: _443  and  _446
REMARK  192  A    between atoms: _446  and  _447
REMARK  193  A    between atoms: _447  and  _448
REMARK  194  A    between atoms: _450  and  _452
REMARK  195  A    between atoms: _452  and  _453
REMARK  196  A    between atoms: _452  and  _455
REMARK  197  A    between atoms: _455  and  _456
REMARK  198  A    between atoms: _458  and  _460
REMARK  199  A    between atoms: _460  and  _461
REMARK  200  A    between atoms: _463  and  _465
REMARK  201  A    between atoms: _465  and  _466
REMARK  202  A    between atoms: _468  and  _470
REMARK  203  A    between atoms: _470  and  _471
REMARK  204  A    between atoms: _473  and  _475
REMARK  205  A    between atoms: _475  and  _476
REMARK  206  A    between atoms: _478  and  _480
REMARK  207  A    between atoms: _480  and  _481
REMARK  208  A    between atoms: _483  and  _485
REMARK  209  A    between atoms: _485  and  _486
REMARK  210  A    between atoms: _485  and  _488
REMARK  211  A    between atoms: _490  and  _492
REMARK  212  A    between atoms: _492  and  _493
REMARK  213  A    between atoms: _492  and  _495
REMARK  214  A    between atoms: _495  and  _496
REMARK                            x       y       z     vdW  Elec       q    Type
REMARK                         _______ _______ _______ _____ _____    ______ ____
ROOT
ATOM      1  O   HOH     1      28.118  18.500  47.148  0.00  0.00    +0.000 OA
ENDROOT
TORSDOF 0
REMARK  Name = ../refined-set-2016/2oi2/2oi2_pocket.pdb
REMARK  214 active torsions:
REMARK  status: ('A' for Active; 'I' for Inactive)
REMARK    1  A    between atoms: _1  and  _3
REMARK    2  A    between atoms: _3  and  _4
REMARK    3  A    between atoms: _3  and  _6
REMARK    4  A    between atoms: _6  and  _7
REMARK    5  A    between atoms: _9  and  _11
REMARK    6  A    between atoms: _11  and  _12
REMARK    7  A    between atoms: _11  and  _14
REMARK    8  A    between atoms: _14  and  _15
REMARK    9  A    between atoms: _15  and  _16
REMARK   10  A    between atoms: _16  and  _17
REMARK   11  A    between atoms: _17  and  _18
REMARK   12  A    between atoms: _22  and  _24
REMARK   13  A    between atoms: _24  and  _25
REMARK   14  A    between atoms: _24  and  _27
REMARK   15  A    between atoms: _27  and  _28
REMARK   16  A    between atoms: _31  and  _33
REMARK   17  A    between atoms: _33  and  _34
REMARK   18  A    between atoms: _33  and  _36
REMARK   19  A    between atoms: _36  and  _37
REMARK   20  A    between atoms: _40  and  _42
REMARK   21  A    between atoms: _42  and  _43
REMARK   22  A    between atoms: _45  and  _47
REMARK   23  A    between atoms: _47  and  _48
REMARK   24  A    between atoms: _47  and  _50
REMARK   25  A    between atoms: _50  and  _51
REMARK   26  A    between atoms: _51  and  _52
REMARK   27  A    between atoms: _55  and  _57
REMARK   28  A    between atoms: _57  and  _58
REMARK   29  A    between atoms: _57  and  _60
REMARK   30  A    between atoms: _60  and  _61
REMARK   31  A    between atoms: _66  and  _68
REMARK   32  A    between atoms: _68  and  _69
REMARK   33  A    between atoms: _72  and  _74
REMARK   34  A    between atoms: _74  and  _75
REMARK   35  A    between atoms: _74  and  _77
REMARK   36  A    between atoms: _80  and  _82
REMARK   37  A    between atoms: _82  and  _83
REMARK   38  A    between atoms: _82  and  _85
REMARK   39  A    between atoms: _88  and  _90
REMARK   40  A    between atoms: _90  and  _91
REMARK   41  A    between atoms: _90  and  _93
REMARK   42  A    between atoms: _93  and  _94
REMARK   43  A    between atoms: _99  and  _100
REMARK   44  A    between atoms: _102  and  _104
REMARK   45  A    between atoms: _104  and  _105
REMARK   46  A    between atoms: _107  and  _109
REMARK   47  A    between atoms: _109  and  _110
REMARK   48  A    between atoms: _113  and  _115
REMARK   49  A    between atoms: _115  and  _116
REMARK   50  A    between atoms: _115  and  _118
REMARK   51  A    between atoms: _118  and  _119
REMARK   52  A    between atoms: _121  and  _123
REMARK   53  A    between atoms: _123  and  _124
REMARK   54  A    between atoms: _123  and  _126
REMARK   55  A    between atoms: _126  and  _127
REMARK   56  A    between atoms: _130  and  _132
REMARK   57  A    between atoms: _132  and  _133
REMARK   58  A    between atoms: _135  and  _137
REMARK   59  A    between atoms: _137  and  _138
REMARK   60  A    between atoms: _137  and  _140
REMARK   61  A    between atoms: _140  and  _141
REMARK   62  A    between atoms: _141  and  _142
REMARK   63  A    between atoms: _144  and  _146
REMARK   64  A    between atoms: _146  and  _147
REMARK   65  A    between atoms: _149  and  _151
REMARK   66  A    between atoms: _151  and  _152
REMARK   67  A    between atoms: _151  and  _154
REMARK   68  A    between atoms: _154  and  _155
REMARK   69  A    between atoms: _157  and  _159
REMARK   70  A    between atoms: _159  and  _160
REMARK   71  A    between atoms: _159  and  _162
REMARK   72  A    between atoms: _162  and  _163
REMARK   73  A    between atoms: _165  and  _167
REMARK   74  A    between atoms: _167  and  _168
REMARK   75  A    between atoms: _171  and  _173
REMARK   76  A    between atoms: _173  and  _174
REMARK   77  A    between atoms: _177  and  _179
REMARK   78  A    between atoms: _179  and  _180
REMARK   79  A    between atoms: _179  and  _182
REMARK   80  A    between atoms: _182  and  _183
REMARK   81  A    between atoms: _186  and  _188
REMARK   82  A    between atoms: _188  and  _189
REMARK   83  A    between atoms: _188  and  _191
REMARK   84  A    between atoms: _191  and  _192
REMARK   85  A    between atoms: _194  and  _196
REMARK   86  A    between atoms: _196  and  _197
REMARK   87  A    between atoms: _196  and  _199
REMARK   88  A    between atoms: _199  and  _200
REMARK   89  A    between atoms: _205  and  _207
REMARK   90  A    between atoms: _207  and  _208
REMARK   91  A    between atoms: _207  and  _210
REMARK   92  A    between atoms: _210  and  _211
REMARK   93  A    between atoms: _211  and  _212
REMARK   94  A    between atoms: _215  and  _217
REMARK   95  A    between atoms: _217  and  _218
REMARK   96  A    between atoms: _217  and  _220
REMARK   97  A    between atoms: _220  and  _221
REMARK   98  A    between atoms: _221  and  _222
REMARK   99  A    between atoms: _224  and  _226
REMARK  100  A    between atoms: _226  and  _227
REMARK  101  A    between atoms: _226  and  _229
REMARK  102  A    between atoms: _229  and  _230
REMARK  103  A    between atoms: _236  and  _237
REMARK  104  A    between atoms: _242  and  _244
REMARK  105  A    between atoms: _244  and  _245
REMARK  106  A    between atoms: _244  and  _247
REMARK  107  A    between atoms: _247  and  _248
REMARK  108  A    between atoms: _250  and  _252
REMARK  109  A    between atoms: _252  and  _253
REMARK  110  A    between atoms: _255  and  _257
REMARK  111  A    between atoms: _257  and  _258
REMARK  112  A    between atoms: _257  and  _260
REMARK  113  A    between atoms: _260  and  _261
REMARK  114  A    between atoms: _264  and  _266
REMARK  115  A    between atoms: _266  and  _267
REMARK  116  A    between atoms: _266  and  _269
REMARK  117  A    between atoms: _269  and  _270
REMARK  118  A    between atoms: _270  and  _272
REMARK  119  A    between atoms: _272  and  MG_501
REMARK  120  A    between atoms: _273  and  _275
REMARK  121  A    between atoms: _275  and  _276
REMARK  122  A    between atoms: _279  and  _281
REMARK  123  A    between atoms: _281  and  _282
REMARK  124  A    between atoms: _281  and  _284
REMARK  125  A    between atoms: _284  and  _285
REMARK  126  A    between atoms: _285  and  _286
REMARK  127  A    between atoms: _286  and  _287
REMARK  128  A    between atoms: _287  and  _288
REMARK  129  A    between atoms: _292  and  _294
REMARK  130  A    between atoms: _294  and  _295
REMARK  131  A    between atoms: _294  and  _297
REMARK  132  A    between atoms: _297  and  _298
REMARK  133  A    between atoms: _301  and  _303
REMARK  134  A    between atoms: _303  and  _304
REMARK  135  A    between atoms: _303  and  _306
REMARK  136  A    between atoms: _308  and  _310
REMARK  137  A    between atoms: _310  and  _311
REMARK  138  A    between atoms: _310  and  _313
REMARK  139  A    between atoms: _313  and  _314
REMARK  140  A    between atoms: _320  and  _322
REMARK  141  A    between atoms: _322  and  _323
REMARK  142  A    between atoms: _322  and  _325
REMARK  143  A    between atoms: _325  and  _326
REMARK  144  A    between atoms: _326  and  _327
REMARK  145  A    between atoms: _327  and  _328
REMARK  146  A    between atoms: _328  and  _329
REMARK  147  A    between atoms: _333  and  _335
REMARK  148  A    between atoms: _335  and  _336
REMARK  149  A    between atoms: _335  and  _338
REMARK  150  A    between atoms: _338  and  _339
REMARK  151  A    between atoms: _344  and  _345
REMARK  152  A    between atoms: _347  and  _349
REMARK  153  A    between atoms: _349  and  _350
REMARK  154  A    between atoms: _352  and  _354
REMARK  155  A    between atoms: _354  and  _355
REMARK  156  A    between atoms: _354  and  _357
REMARK  157  A    between atoms: _357  and  _358
REMARK  158  A    between atoms: _363  and  _365
REMARK  159  A    between atoms: _365  and  _366
REMARK  160  A    between atoms: _365  and  _368
REMARK  161  A    between atoms: _368  and  _369
REMARK  162  A    between atoms: _372  and  _374
REMARK  163  A    between atoms: _374  and  _375
REMARK  164  A    between atoms: _374  and  _377
REMARK  165  A    between atoms: _377  and  _378
REMARK  166  A    between atoms: _378  and  _379
REMARK  167  A    between atoms: _379  and  _380
REMARK  168  A    between atoms: _389  and  _391
REMARK  169  A    between atoms: _391  and  _392
REMARK  170  A    between atoms: _395  and  _397
REMARK  171  A    between atoms: _397  and  _398
REMARK  172  A    between atoms: _397  and  _400
REMARK  173  A    between atoms: _400  and  _401
REMARK  174  A    between atoms: _404  and  _406
REMARK  175  A    between atoms: _406  and  _407
REMARK  176  A    between atoms: _406  and  _409
REMARK  177  A    between atoms: _409  and  _410
REMARK  178  A    between atoms: _410  and  _411
REMARK  179  A    between atoms: _416  and  _418
REMARK  180  A    between atoms: _418  and  _419
REMARK  181  A    between atoms: _418  and  _421
REMARK  182  A    between atoms: _424  and  _426
REMARK  183  A    between atoms: _426  and  _427
REMARK  184  A    between atoms: _426  and  _429
REMARK  185  A    between atoms: _429  and  _430
REMARK  186  A    between atoms: _433  and  _435
REMARK  187  A    between atoms: _435  and  _436
REMARK  188  A    between atoms: _435  and  _438
REMARK  189  A    between atoms: _441  and  _443
REMARK  190  A    between atoms: _443  and  _444
REMARK  191  A    between atoms: _443  and  _446
REMARK  192  A    between atoms: _446  and  _447
REMARK  193  A    between atoms: _447  and  _448
REMARK  194  A    between atoms: _450  and  _452
REMARK  195  A    between atoms: _452  and  _453
REMARK  196  A    between atoms: _452  and  _455
REMARK  197  A    between atoms: _455  and  _456
REMARK  198  A    between atoms: _458  and  _460
REMARK  199  A    between atoms: _460  and  _461
REMARK  200  A    between atoms: _463  and  _465
REMARK  201  A    between atoms: _465  and  _466
REMARK  202  A    between atoms: _468  and  _470
REMARK  203  A    between atoms: _470  and  _471
REMARK  204  A    between atoms: _473  and  _475
REMARK  205  A    between atoms: _475  and  _476
REMARK  206  A    between atoms: _478  and  _480
REMARK  207  A    between atoms: _480  and  _481
REMARK  208  A    between atoms: _483  and  _485
REMARK  209  A    between atoms: _485  and  _486
REMARK  210  A    between atoms: _485  and  _488
REMARK  211  A    between atoms: _490  and  _492
REMARK  212  A    between atoms: _492  and  _493
REMARK  213  A    between atoms: _492  and  _495
REMARK  214  A    between atoms: _495  and  _496
REMARK                            x       y       z     vdW  Elec       q    Type
REMARK                         _______ _______ _______ _____ _____    ______ ____
ROOT
ATOM      1  O   HOH     1      26.451  29.373  43.336  0.00  0.00    +0.000 OA
ENDROOT
TORSDOF 0
REMARK  Name = ../refined-set-2016/2oi2/2oi2_pocket.pdb
REMARK  214 active torsions:
REMARK  status: ('A' for Active; 'I' for Inactive)
REMARK    1  A    between atoms: _1  and  _3
REMARK    2  A    between atoms: _3  and  _4
REMARK    3  A    between atoms: _3  and  _6
REMARK    4  A    between atoms: _6  and  _7
REMARK    5  A    between atoms: _9  and  _11
REMARK    6  A    between atoms: _11  and  _12
REMARK    7  A    between atoms: _11  and  _14
REMARK    8  A    between atoms: _14  and  _15
REMARK    9  A    between atoms: _15  and  _16
REMARK   10  A    between atoms: _16  and  _17
REMARK   11  A    between atoms: _17  and  _18
REMARK   12  A    between atoms: _22  and  _24
REMARK   13  A    between atoms: _24  and  _25
REMARK   14  A    between atoms: _24  and  _27
REMARK   15  A    between atoms: _27  and  _28
REMARK   16  A    between atoms: _31  and  _33
REMARK   17  A    between atoms: _33  and  _34
REMARK   18  A    between atoms: _33  and  _36
REMARK   19  A    between atoms: _36  and  _37
REMARK   20  A    between atoms: _40  and  _42
REMARK   21  A    between atoms: _42  and  _43
REMARK   22  A    between atoms: _45  and  _47
REMARK   23  A    between atoms: _47  and  _48
REMARK   24  A    between atoms: _47  and  _50
REMARK   25  A    between atoms: _50  and  _51
REMARK   26  A    between atoms: _51  and  _52
REMARK   27  A    between atoms: _55  and  _57
REMARK   28  A    between atoms: _57  and  _58
REMARK   29  A    between atoms: _57  and  _60
REMARK   30  A    between atoms: _60  and  _61
REMARK   31  A    between atoms: _66  and  _68
REMARK   32  A    between atoms: _68  and  _69
REMARK   33  A    between atoms: _72  and  _74
REMARK   34  A    between atoms: _74  and  _75
REMARK   35  A    between atoms: _74  and  _77
REMARK   36  A    between atoms: _80  and  _82
REMARK   37  A    between atoms: _82  and  _83
REMARK   38  A    between atoms: _82  and  _85
REMARK   39  A    between atoms: _88  and  _90
REMARK   40  A    between atoms: _90  and  _91
REMARK   41  A    between atoms: _90  and  _93
REMARK   42  A    between atoms: _93  and  _94
REMARK   43  A    between atoms: _99  and  _100
REMARK   44  A    between atoms: _102  and  _104
REMARK   45  A    between atoms: _104  and  _105
REMARK   46  A    between atoms: _107  and  _109
REMARK   47  A    between atoms: _109  and  _110
REMARK   48  A    between atoms: _113  and  _115
REMARK   49  A    between atoms: _115  and  _116
REMARK   50  A    between atoms: _115  and  _118
REMARK   51  A    between atoms: _118  and  _119
REMARK   52  A    between atoms: _121  and  _123
REMARK   53  A    between atoms: _123  and  _124
REMARK   54  A    between atoms: _123  and  _126
REMARK   55  A    between atoms: _126  and  _127
REMARK   56  A    between atoms: _130  and  _132
REMARK   57  A    between atoms: _132  and  _133
REMARK   58  A    between atoms: _135  and  _137
REMARK   59  A    between atoms: _137  and  _138
REMARK   60  A    between atoms: _137  and  _140
REMARK   61  A    between atoms: _140  and  _141
REMARK   62  A    between atoms: _141  and  _142
REMARK   63  A    between atoms: _144  and  _146
REMARK   64  A    between atoms: _146  and  _147
REMARK   65  A    between atoms: _149  and  _151
REMARK   66  A    between atoms: _151  and  _152
REMARK   67  A    between atoms: _151  and  _154
REMARK   68  A    between atoms: _154  and  _155
REMARK   69  A    between atoms: _157  and  _159
REMARK   70  A    between atoms: _159  and  _160
REMARK   71  A    between atoms: _159  and  _162
REMARK   72  A    between atoms: _162  and  _163
REMARK   73  A    between atoms: _165  and  _167
REMARK   74  A    between atoms: _167  and  _168
REMARK   75  A    between atoms: _171  and  _173
REMARK   76  A    between atoms: _173  and  _174
REMARK   77  A    between atoms: _177  and  _179
REMARK   78  A    between atoms: _179  and  _180
REMARK   79  A    between atoms: _179  and  _182
REMARK   80  A    between atoms: _182  and  _183
REMARK   81  A    between atoms: _186  and  _188
REMARK   82  A    between atoms: _188  and  _189
REMARK   83  A    between atoms: _188  and  _191
REMARK   84  A    between atoms: _191  and  _192
REMARK   85  A    between atoms: _194  and  _196
REMARK   86  A    between atoms: _196  and  _197
REMARK   87  A    between atoms: _196  and  _199
REMARK   88  A    between atoms: _199  and  _200
REMARK   89  A    between atoms: _205  and  _207
REMARK   90  A    between atoms: _207  and  _208
REMARK   91  A    between atoms: _207  and  _210
REMARK   92  A    between atoms: _210  and  _211
REMARK   93  A    between atoms: _211  and  _212
REMARK   94  A    between atoms: _215  and  _217
REMARK   95  A    between atoms: _217  and  _218
REMARK   96  A    between atoms: _217  and  _220
REMARK   97  A    between atoms: _220  and  _221
REMARK   98  A    between atoms: _221  and  _222
REMARK   99  A    between atoms: _224  and  _226
REMARK  100  A    between atoms: _226  and  _227
REMARK  101  A    between atoms: _226  and  _229
REMARK  102  A    between atoms: _229  and  _230
REMARK  103  A    between atoms: _236  and  _237
REMARK  104  A    between atoms: _242  and  _244
REMARK  105  A    between atoms: _244  and  _245
REMARK  106  A    between atoms: _244  and  _247
REMARK  107  A    between atoms: _247  and  _248
REMARK  108  A    between atoms: _250  and  _252
REMARK  109  A    between atoms: _252  and  _253
REMARK  110  A    between atoms: _255  and  _257
REMARK  111  A    between atoms: _257  and  _258
REMARK  112  A    between atoms: _257  and  _260
REMARK  113  A    between atoms: _260  and  _261
REMARK  114  A    between atoms: _264  and  _266
REMARK  115  A    between atoms: _266  and  _267
REMARK  116  A    between atoms: _266  and  _269
REMARK  117  A    between atoms: _269  and  _270
REMARK  118  A    between atoms: _270  and  _272
REMARK  119  A    between atoms: _272  and  MG_501
REMARK  120  A    between atoms: _273  and  _275
REMARK  121  A    between atoms: _275  and  _276
REMARK  122  A    between atoms: _279  and  _281
REMARK  123  A    between atoms: _281  and  _282
REMARK  124  A    between atoms: _281  and  _284
REMARK  125  A    between atoms: _284  and  _285
REMARK  126  A    between atoms: _285  and  _286
REMARK  127  A    between atoms: _286  and  _287
REMARK  128  A    between atoms: _287  and  _288
REMARK  129  A    between atoms: _292  and  _294
REMARK  130  A    between atoms: _294  and  _295
REMARK  131  A    between atoms: _294  and  _297
REMARK  132  A    between atoms: _297  and  _298
REMARK  133  A    between atoms: _301  and  _303
REMARK  134  A    between atoms: _303  and  _304
REMARK  135  A    between atoms: _303  and  _306
REMARK  136  A    between atoms: _308  and  _310
REMARK  137  A    between atoms: _310  and  _311
REMARK  138  A    between atoms: _310  and  _313
REMARK  139  A    between atoms: _313  and  _314
REMARK  140  A    between atoms: _320  and  _322
REMARK  141  A    between atoms: _322  and  _323
REMARK  142  A    between atoms: _322  and  _325
REMARK  143  A    between atoms: _325  and  _326
REMARK  144  A    between atoms: _326  and  _327
REMARK  145  A    between atoms: _327  and  _328
REMARK  146  A    between atoms: _328  and  _329
REMARK  147  A    between atoms: _333  and  _335
REMARK  148  A    between atoms: _335  and  _336
REMARK  149  A    between atoms: _335  and  _338
REMARK  150  A    between atoms: _338  and  _339
REMARK  151  A    between atoms: _344  and  _345
REMARK  152  A    between atoms: _347  and  _349
REMARK  153  A    between atoms: _349  and  _350
REMARK  154  A    between atoms: _352  and  _354
REMARK  155  A    between atoms: _354  and  _355
REMARK  156  A    between atoms: _354  and  _357
REMARK  157  A    between atoms: _357  and  _358
REMARK  158  A    between atoms: _363  and  _365
REMARK  159  A    between atoms: _365  and  _366
REMARK  160  A    between atoms: _365  and  _368
REMARK  161  A    between atoms: _368  and  _369
REMARK  162  A    between atoms: _372  and  _374
REMARK  163  A    between atoms: _374  and  _375
REMARK  164  A    between atoms: _374  and  _377
REMARK  165  A    between atoms: _377  and  _378
REMARK  166  A    between atoms: _378  and  _379
REMARK  167  A    between atoms: _379  and  _380
REMARK  168  A    between atoms: _389  and  _391
REMARK  169  A    between atoms: _391  and  _392
REMARK  170  A    between atoms: _395  and  _397
REMARK  171  A    between atoms: _397  and  _398
REMARK  172  A    between atoms: _397  and  _400
REMARK  173  A    between atoms: _400  and  _401
REMARK  174  A    between atoms: _404  and  _406
REMARK  175  A    between atoms: _406  and  _407
REMARK  176  A    between atoms: _406  and  _409
REMARK  177  A    between atoms: _409  and  _410
REMARK  178  A    between atoms: _410  and  _411
REMARK  179  A    between atoms: _416  and  _418
REMARK  180  A    between atoms: _418  and  _419
REMARK  181  A    between atoms: _418  and  _421
REMARK  182  A    between atoms: _424  and  _426
REMARK  183  A    between atoms: _426  and  _427
REMARK  184  A    between atoms: _426  and  _429
REMARK  185  A    between atoms: _429  and  _430
REMARK  186  A    between atoms: _433  and  _435
REMARK  187  A    between atoms: _435  and  _436
REMARK  188  A    between atoms: _435  and  _438
REMARK  189  A    between atoms: _441  and  _443
REMARK  190  A    between atoms: _443  and  _444
REMARK  191  A    between atoms: _443  and  _446
REMARK  192  A    between atoms: _446  and  _447
REMARK  193  A    between atoms: _447  and  _448
REMARK  194  A    between atoms: _450  and  _452
REMARK  195  A    between atoms: _452  and  _453
REMARK  196  A    between atoms: _452  and  _455
REMARK  197  A    between atoms: _455  and  _456
REMARK  198  A    between atoms: _458  and  _460
REMARK  199  A    between atoms: _460  and  _461
REMARK  200  A    between atoms: _463  and  _465
REMARK  201  A    between atoms: _465  and  _466
REMARK  202  A    between atoms: _468  and  _470
REMARK  203  A    between atoms: _470  and  _471
REMARK  204  A    between atoms: _473  and  _475
REMARK  205  A    between atoms: _475  and  _476
REMARK  206  A    between atoms: _478  and  _480
REMARK  207  A    between atoms: _480  and  _481
REMARK  208  A    between atoms: _483  and  _485
REMARK  209  A    between atoms: _485  and  _486
REMARK  210  A    between atoms: _485  and  _488
REMARK  211  A    between atoms: _490  and  _492
REMARK  212  A    between atoms: _492  and  _493
REMARK  213  A    between atoms: _492  and  _495
REMARK  214  A    between atoms: _495  and  _496
REMARK                            x       y       z     vdW  Elec       q    Type
REMARK                         _______ _______ _______ _____ _____    ______ ____
ROOT
ATOM      1  O   HOH     1      19.245  24.760  50.214  0.00  0.00    +0.000 OA
ENDROOT
TORSDOF 0
REMARK  Name = ../refined-set-2016/2oi2/2oi2_pocket.pdb
REMARK  214 active torsions:
REMARK  status: ('A' for Active; 'I' for Inactive)
REMARK    1  A    between atoms: _1  and  _3
REMARK    2  A    between atoms: _3  and  _4
REMARK    3  A    between atoms: _3  and  _6
REMARK    4  A    between atoms: _6  and  _7
REMARK    5  A    between atoms: _9  and  _11
REMARK    6  A    between atoms: _11  and  _12
REMARK    7  A    between atoms: _11  and  _14
REMARK    8  A    between atoms: _14  and  _15
REMARK    9  A    between atoms: _15  and  _16
REMARK   10  A    between atoms: _16  and  _17
REMARK   11  A    between atoms: _17  and  _18
REMARK   12  A    between atoms: _22  and  _24
REMARK   13  A    between atoms: _24  and  _25
REMARK   14  A    between atoms: _24  and  _27
REMARK   15  A    between atoms: _27  and  _28
REMARK   16  A    between atoms: _31  and  _33
REMARK   17  A    between atoms: _33  and  _34
REMARK   18  A    between atoms: _33  and  _36
REMARK   19  A    between atoms: _36  and  _37
REMARK   20  A    between atoms: _40  and  _42
REMARK   21  A    between atoms: _42  and  _43
REMARK   22  A    between atoms: _45  and  _47
REMARK   23  A    between atoms: _47  and  _48
REMARK   24  A    between atoms: _47  and  _50
REMARK   25  A    between atoms: _50  and  _51
REMARK   26  A    between atoms: _51  and  _52
REMARK   27  A    between atoms: _55  and  _57
REMARK   28  A    between atoms: _57  and  _58
REMARK   29  A    between atoms: _57  and  _60
REMARK   30  A    between atoms: _60  and  _61
REMARK   31  A    between atoms: _66  and  _68
REMARK   32  A    between atoms: _68  and  _69
REMARK   33  A    between atoms: _72  and  _74
REMARK   34  A    between atoms: _74  and  _75
REMARK   35  A    between atoms: _74  and  _77
REMARK   36  A    between atoms: _80  and  _82
REMARK   37  A    between atoms: _82  and  _83
REMARK   38  A    between atoms: _82  and  _85
REMARK   39  A    between atoms: _88  and  _90
REMARK   40  A    between atoms: _90  and  _91
REMARK   41  A    between atoms: _90  and  _93
REMARK   42  A    between atoms: _93  and  _94
REMARK   43  A    between atoms: _99  and  _100
REMARK   44  A    between atoms: _102  and  _104
REMARK   45  A    between atoms: _104  and  _105
REMARK   46  A    between atoms: _107  and  _109
REMARK   47  A    between atoms: _109  and  _110
REMARK   48  A    between atoms: _113  and  _115
REMARK   49  A    between atoms: _115  and  _116
REMARK   50  A    between atoms: _115  and  _118
REMARK   51  A    between atoms: _118  and  _119
REMARK   52  A    between atoms: _121  and  _123
REMARK   53  A    between atoms: _123  and  _124
REMARK   54  A    between atoms: _123  and  _126
REMARK   55  A    between atoms: _126  and  _127
REMARK   56  A    between atoms: _130  and  _132
REMARK   57  A    between atoms: _132  and  _133
REMARK   58  A    between atoms: _135  and  _137
REMARK   59  A    between atoms: _137  and  _138
REMARK   60  A    between atoms: _137  and  _140
REMARK   61  A    between atoms: _140  and  _141
REMARK   62  A    between atoms: _141  and  _142
REMARK   63  A    between atoms: _144  and  _146
REMARK   64  A    between atoms: _146  and  _147
REMARK   65  A    between atoms: _149  and  _151
REMARK   66  A    between atoms: _151  and  _152
REMARK   67  A    between atoms: _151  and  _154
REMARK   68  A    between atoms: _154  and  _155
REMARK   69  A    between atoms: _157  and  _159
REMARK   70  A    between atoms: _159  and  _160
REMARK   71  A    between atoms: _159  and  _162
REMARK   72  A    between atoms: _162  and  _163
REMARK   73  A    between atoms: _165  and  _167
REMARK   74  A    between atoms: _167  and  _168
REMARK   75  A    between atoms: _171  and  _173
REMARK   76  A    between atoms: _173  and  _174
REMARK   77  A    between atoms: _177  and  _179
REMARK   78  A    between atoms: _179  and  _180
REMARK   79  A    between atoms: _179  and  _182
REMARK   80  A    between atoms: _182  and  _183
REMARK   81  A    between atoms: _186  and  _188
REMARK   82  A    between atoms: _188  and  _189
REMARK   83  A    between atoms: _188  and  _191
REMARK   84  A    between atoms: _191  and  _192
REMARK   85  A    between atoms: _194  and  _196
REMARK   86  A    between atoms: _196  and  _197
REMARK   87  A    between atoms: _196  and  _199
REMARK   88  A    between atoms: _199  and  _200
REMARK   89  A    between atoms: _205  and  _207
REMARK   90  A    between atoms: _207  and  _208
REMARK   91  A    between atoms: _207  and  _210
REMARK   92  A    between atoms: _210  and  _211
REMARK   93  A    between atoms: _211  and  _212
REMARK   94  A    between atoms: _215  and  _217
REMARK   95  A    between atoms: _217  and  _218
REMARK   96  A    between atoms: _217  and  _220
REMARK   97  A    between atoms: _220  and  _221
REMARK   98  A    between atoms: _221  and  _222
REMARK   99  A    between atoms: _224  and  _226
REMARK  100  A    between atoms: _226  and  _227
REMARK  101  A    between atoms: _226  and  _229
REMARK  102  A    between atoms: _229  and  _230
REMARK  103  A    between atoms: _236  and  _237
REMARK  104  A    between atoms: _242  and  _244
REMARK  105  A    between atoms: _244  and  _245
REMARK  106  A    between atoms: _244  and  _247
REMARK  107  A    between atoms: _247  and  _248
REMARK  108  A    between atoms: _250  and  _252
REMARK  109  A    between atoms: _252  and  _253
REMARK  110  A    between atoms: _255  and  _257
REMARK  111  A    between atoms: _257  and  _258
REMARK  112  A    between atoms: _257  and  _260
REMARK  113  A    between atoms: _260  and  _261
REMARK  114  A    between atoms: _264  and  _266
REMARK  115  A    between atoms: _266  and  _267
REMARK  116  A    between atoms: _266  and  _269
REMARK  117  A    between atoms: _269  and  _270
REMARK  118  A    between atoms: _270  and  _272
REMARK  119  A    between atoms: _272  and  MG_501
REMARK  120  A    between atoms: _273  and  _275
REMARK  121  A    between atoms: _275  and  _276
REMARK  122  A    between atoms: _279  and  _281
REMARK  123  A    between atoms: _281  and  _282
REMARK  124  A    between atoms: _281  and  _284
REMARK  125  A    between atoms: _284  and  _285
REMARK  126  A    between atoms: _285  and  _286
REMARK  127  A    between atoms: _286  and  _287
REMARK  128  A    between atoms: _287  and  _288
REMARK  129  A    between atoms: _292  and  _294
REMARK  130  A    between atoms: _294  and  _295
REMARK  131  A    between atoms: _294  and  _297
REMARK  132  A    between atoms: _297  and  _298
REMARK  133  A    between atoms: _301  and  _303
REMARK  134  A    between atoms: _303  and  _304
REMARK  135  A    between atoms: _303  and  _306
REMARK  136  A    between atoms: _308  and  _310
REMARK  137  A    between atoms: _310  and  _311
REMARK  138  A    between atoms: _310  and  _313
REMARK  139  A    between atoms: _313  and  _314
REMARK  140  A    between atoms: _320  and  _322
REMARK  141  A    between atoms: _322  and  _323
REMARK  142  A    between atoms: _322  and  _325
REMARK  143  A    between atoms: _325  and  _326
REMARK  144  A    between atoms: _326  and  _327
REMARK  145  A    between atoms: _327  and  _328
REMARK  146  A    between atoms: _328  and  _329
REMARK  147  A    between atoms: _333  and  _335
REMARK  148  A    between atoms: _335  and  _336
REMARK  149  A    between atoms: _335  and  _338
REMARK  150  A    between atoms: _338  and  _339
REMARK  151  A    between atoms: _344  and  _345
REMARK  152  A    between atoms: _347  and  _349
REMARK  153  A    between atoms: _349  and  _350
REMARK  154  A    between atoms: _352  and  _354
REMARK  155  A    between atoms: _354  and  _355
REMARK  156  A    between atoms: _354  and  _357
REMARK  157  A    between atoms: _357  and  _358
REMARK  158  A    between atoms: _363  and  _365
REMARK  159  A    between atoms: _365  and  _366
REMARK  160  A    between atoms: _365  and  _368
REMARK  161  A    between atoms: _368  and  _369
REMARK  162  A    between atoms: _372  and  _374
REMARK  163  A    between atoms: _374  and  _375
REMARK  164  A    between atoms: _374  and  _377
REMARK  165  A    between atoms: _377  and  _378
REMARK  166  A    between atoms: _378  and  _379
REMARK  167  A    between atoms: _379  and  _380
REMARK  168  A    between atoms: _389  and  _391
REMARK  169  A    between atoms: _391  and  _392
REMARK  170  A    between atoms: _395  and  _397
REMARK  171  A    between atoms: _397  and  _398
REMARK  172  A    between atoms: _397  and  _400
REMARK  173  A    between atoms: _400  and  _401
REMARK  174  A    between atoms: _404  and  _406
REMARK  175  A    between atoms: _406  and  _407
REMARK  176  A    between atoms: _406  and  _409
REMARK  177  A    between atoms: _409  and  _410
REMARK  178  A    between atoms: _410  and  _411
REMARK  179  A    between atoms: _416  and  _418
REMARK  180  A    between atoms: _418  and  _419
REMARK  181  A    between atoms: _418  and  _421
REMARK  182  A    between atoms: _424  and  _426
REMARK  183  A    between atoms: _426  and  _427
REMARK  184  A    between atoms: _426  and  _429
REMARK  185  A    between atoms: _429  and  _430
REMARK  186  A    between atoms: _433  and  _435
REMARK  187  A    between atoms: _435  and  _436
REMARK  188  A    between atoms: _435  and  _438
REMARK  189  A    between atoms: _441  and  _443
REMARK  190  A    between atoms: _443  and  _444
REMARK  191  A    between atoms: _443  and  _446
REMARK  192  A    between atoms: _446  and  _447
REMARK  193  A    between atoms: _447  and  _448
REMARK  194  A    between atoms: _450  and  _452
REMARK  195  A    between atoms: _452  and  _453
REMARK  196  A    between atoms: _452  and  _455
REMARK  197  A    between atoms: _455  and  _456
REMARK  198  A    between atoms: _458  and  _460
REMARK  199  A    between atoms: _460  and  _461
REMARK  200  A    between atoms: _463  and  _465
REMARK  201  A    between atoms: _465  and  _466
REMARK  202  A    between atoms: _468  and  _470
REMARK  203  A    between atoms: _470  and  _471
REMARK  204  A    between atoms: _473  and  _475
REMARK  205  A    between atoms: _475  and  _476
REMARK  206  A    between atoms: _478  and  _480
REMARK  207  A    between atoms: _480  and  _481
REMARK  208  A    between atoms: _483  and  _485
REMARK  209  A    between atoms: _485  and  _486
REMARK  210  A    between atoms: _485  and  _488
REMARK  211  A    between atoms: _490  and  _492
REMARK  212  A    between atoms: _492  and  _493
REMARK  213  A    between atoms: _492  and  _495
REMARK  214  A    between atoms: _495  and  _496
REMARK                            x       y       z     vdW  Elec       q    Type
REMARK                         _______ _______ _______ _____ _____    ______ ____
ROOT
ATOM      1  O   HOH     1      32.372  24.761  49.193  0.00  0.00    +0.000 OA
ENDROOT
TORSDOF 0
REMARK  Name = ../refined-set-2016/2oi2/2oi2_pocket.pdb
REMARK  214 active torsions:
REMARK  status: ('A' for Active; 'I' for Inactive)
REMARK    1  A    between atoms: _1  and  _3
REMARK    2  A    between atoms: _3  and  _4
REMARK    3  A    between atoms: _3  and  _6
REMARK    4  A    between atoms: _6  and  _7
REMARK    5  A    between atoms: _9  and  _11
REMARK    6  A    between atoms: _11  and  _12
REMARK    7  A    between atoms: _11  and  _14
REMARK    8  A    between atoms: _14  and  _15
REMARK    9  A    between atoms: _15  and  _16
REMARK   10  A    between atoms: _16  and  _17
REMARK   11  A    between atoms: _17  and  _18
REMARK   12  A    between atoms: _22  and  _24
REMARK   13  A    between atoms: _24  and  _25
REMARK   14  A    between atoms: _24  and  _27
REMARK   15  A    between atoms: _27  and  _28
REMARK   16  A    between atoms: _31  and  _33
REMARK   17  A    between atoms: _33  and  _34
REMARK   18  A    between atoms: _33  and  _36
REMARK   19  A    between atoms: _36  and  _37
REMARK   20  A    between atoms: _40  and  _42
REMARK   21  A    between atoms: _42  and  _43
REMARK   22  A    between atoms: _45  and  _47
REMARK   23  A    between atoms: _47  and  _48
REMARK   24  A    between atoms: _47  and  _50
REMARK   25  A    between atoms: _50  and  _51
REMARK   26  A    between atoms: _51  and  _52
REMARK   27  A    between atoms: _55  and  _57
REMARK   28  A    between atoms: _57  and  _58
REMARK   29  A    between atoms: _57  and  _60
REMARK   30  A    between atoms: _60  and  _61
REMARK   31  A    between atoms: _66  and  _68
REMARK   32  A    between atoms: _68  and  _69
REMARK   33  A    between atoms: _72  and  _74
REMARK   34  A    between atoms: _74  and  _75
REMARK   35  A    between atoms: _74  and  _77
REMARK   36  A    between atoms: _80  and  _82
REMARK   37  A    between atoms: _82  and  _83
REMARK   38  A    between atoms: _82  and  _85
REMARK   39  A    between atoms: _88  and  _90
REMARK   40  A    between atoms: _90  and  _91
REMARK   41  A    between atoms: _90  and  _93
REMARK   42  A    between atoms: _93  and  _94
REMARK   43  A    between atoms: _99  and  _100
REMARK   44  A    between atoms: _102  and  _104
REMARK   45  A    between atoms: _104  and  _105
REMARK   46  A    between atoms: _107  and  _109
REMARK   47  A    between atoms: _109  and  _110
REMARK   48  A    between atoms: _113  and  _115
REMARK   49  A    between atoms: _115  and  _116
REMARK   50  A    between atoms: _115  and  _118
REMARK   51  A    between atoms: _118  and  _119
REMARK   52  A    between atoms: _121  and  _123
REMARK   53  A    between atoms: _123  and  _124
REMARK   54  A    between atoms: _123  and  _126
REMARK   55  A    between atoms: _126  and  _127
REMARK   56  A    between atoms: _130  and  _132
REMARK   57  A    between atoms: _132  and  _133
REMARK   58  A    between atoms: _135  and  _137
REMARK   59  A    between atoms: _137  and  _138
REMARK   60  A    between atoms: _137  and  _140
REMARK   61  A    between atoms: _140  and  _141
REMARK   62  A    between atoms: _141  and  _142
REMARK   63  A    between atoms: _144  and  _146
REMARK   64  A    between atoms: _146  and  _147
REMARK   65  A    between atoms: _149  and  _151
REMARK   66  A    between atoms: _151  and  _152
REMARK   67  A    between atoms: _151  and  _154
REMARK   68  A    between atoms: _154  and  _155
REMARK   69  A    between atoms: _157  and  _159
REMARK   70  A    between atoms: _159  and  _160
REMARK   71  A    between atoms: _159  and  _162
REMARK   72  A    between atoms: _162  and  _163
REMARK   73  A    between atoms: _165  and  _167
REMARK   74  A    between atoms: _167  and  _168
REMARK   75  A    between atoms: _171  and  _173
REMARK   76  A    between atoms: _173  and  _174
REMARK   77  A    between atoms: _177  and  _179
REMARK   78  A    between atoms: _179  and  _180
REMARK   79  A    between atoms: _179  and  _182
REMARK   80  A    between atoms: _182  and  _183
REMARK   81  A    between atoms: _186  and  _188
REMARK   82  A    between atoms: _188  and  _189
REMARK   83  A    between atoms: _188  and  _191
REMARK   84  A    between atoms: _191  and  _192
REMARK   85  A    between atoms: _194  and  _196
REMARK   86  A    between atoms: _196  and  _197
REMARK   87  A    between atoms: _196  and  _199
REMARK   88  A    between atoms: _199  and  _200
REMARK   89  A    between atoms: _205  and  _207
REMARK   90  A    between atoms: _207  and  _208
REMARK   91  A    between atoms: _207  and  _210
REMARK   92  A    between atoms: _210  and  _211
REMARK   93  A    between atoms: _211  and  _212
REMARK   94  A    between atoms: _215  and  _217
REMARK   95  A    between atoms: _217  and  _218
REMARK   96  A    between atoms: _217  and  _220
REMARK   97  A    between atoms: _220  and  _221
REMARK   98  A    between atoms: _221  and  _222
REMARK   99  A    between atoms: _224  and  _226
REMARK  100  A    between atoms: _226  and  _227
REMARK  101  A    between atoms: _226  and  _229
REMARK  102  A    between atoms: _229  and  _230
REMARK  103  A    between atoms: _236  and  _237
REMARK  104  A    between atoms: _242  and  _244
REMARK  105  A    between atoms: _244  and  _245
REMARK  106  A    between atoms: _244  and  _247
REMARK  107  A    between atoms: _247  and  _248
REMARK  108  A    between atoms: _250  and  _252
REMARK  109  A    between atoms: _252  and  _253
REMARK  110  A    between atoms: _255  and  _257
REMARK  111  A    between atoms: _257  and  _258
REMARK  112  A    between atoms: _257  and  _260
REMARK  113  A    between atoms: _260  and  _261
REMARK  114  A    between atoms: _264  and  _266
REMARK  115  A    between atoms: _266  and  _267
REMARK  116  A    between atoms: _266  and  _269
REMARK  117  A    between atoms: _269  and  _270
REMARK  118  A    between atoms: _270  and  _272
REMARK  119  A    between atoms: _272  and  MG_501
REMARK  120  A    between atoms: _273  and  _275
REMARK  121  A    between atoms: _275  and  _276
REMARK  122  A    between atoms: _279  and  _281
REMARK  123  A    between atoms: _281  and  _282
REMARK  124  A    between atoms: _281  and  _284
REMARK  125  A    between atoms: _284  and  _285
REMARK  126  A    between atoms: _285  and  _286
REMARK  127  A    between atoms: _286  and  _287
REMARK  128  A    between atoms: _287  and  _288
REMARK  129  A    between atoms: _292  and  _294
REMARK  130  A    between atoms: _294  and  _295
REMARK  131  A    between atoms: _294  and  _297
REMARK  132  A    between atoms: _297  and  _298
REMARK  133  A    between atoms: _301  and  _303
REMARK  134  A    between atoms: _303  and  _304
REMARK  135  A    between atoms: _303  and  _306
REMARK  136  A    between atoms: _308  and  _310
REMARK  137  A    between atoms: _310  and  _311
REMARK  138  A    between atoms: _310  and  _313
REMARK  139  A    between atoms: _313  and  _314
REMARK  140  A    between atoms: _320  and  _322
REMARK  141  A    between atoms: _322  and  _323
REMARK  142  A    between atoms: _322  and  _325
REMARK  143  A    between atoms: _325  and  _326
REMARK  144  A    between atoms: _326  and  _327
REMARK  145  A    between atoms: _327  and  _328
REMARK  146  A    between atoms: _328  and  _329
REMARK  147  A    between atoms: _333  and  _335
REMARK  148  A    between atoms: _335  and  _336
REMARK  149  A    between atoms: _335  and  _338
REMARK  150  A    between atoms: _338  and  _339
REMARK  151  A    between atoms: _344  and  _345
REMARK  152  A    between atoms: _347  and  _349
REMARK  153  A    between atoms: _349  and  _350
REMARK  154  A    between atoms: _352  and  _354
REMARK  155  A    between atoms: _354  and  _355
REMARK  156  A    between atoms: _354  and  _357
REMARK  157  A    between atoms: _357  and  _358
REMARK  158  A    between atoms: _363  and  _365
REMARK  159  A    between atoms: _365  and  _366
REMARK  160  A    between atoms: _365  and  _368
REMARK  161  A    between atoms: _368  and  _369
REMARK  162  A    between atoms: _372  and  _374
REMARK  163  A    between atoms: _374  and  _375
REMARK  164  A    between atoms: _374  and  _377
REMARK  165  A    between atoms: _377  and  _378
REMARK  166  A    between atoms: _378  and  _379
REMARK  167  A    between atoms: _379  and  _380
REMARK  168  A    between atoms: _389  and  _391
REMARK  169  A    between atoms: _391  and  _392
REMARK  170  A    between atoms: _395  and  _397
REMARK  171  A    between atoms: _397  and  _398
REMARK  172  A    between atoms: _397  and  _400
REMARK  173  A    between atoms: _400  and  _401
REMARK  174  A    between atoms: _404  and  _406
REMARK  175  A    between atoms: _406  and  _407
REMARK  176  A    between atoms: _406  and  _409
REMARK  177  A    between atoms: _409  and  _410
REMARK  178  A    between atoms: _410  and  _411
REMARK  179  A    between atoms: _416  and  _418
REMARK  180  A    between atoms: _418  and  _419
REMARK  181  A    between atoms: _418  and  _421
REMARK  182  A    between atoms: _424  and  _426
REMARK  183  A    between atoms: _426  and  _427
REMARK  184  A    between atoms: _426  and  _429
REMARK  185  A    between atoms: _429  and  _430
REMARK  186  A    between atoms: _433  and  _435
REMARK  187  A    between atoms: _435  and  _436
REMARK  188  A    between atoms: _435  and  _438
REMARK  189  A    between atoms: _441  and  _443
REMARK  190  A    between atoms: _443  and  _444
REMARK  191  A    between atoms: _443  and  _446
REMARK  192  A    between atoms: _446  and  _447
REMARK  193  A    between atoms: _447  and  _448
REMARK  194  A    between atoms: _450  and  _452
REMARK  195  A    between atoms: _452  and  _453
REMARK  196  A    between atoms: _452  and  _455
REMARK  197  A    between atoms: _455  and  _456
REMARK  198  A    between atoms: _458  and  _460
REMARK  199  A    between atoms: _460  and  _461
REMARK  200  A    between atoms: _463  and  _465
REMARK  201  A    between atoms: _465  and  _466
REMARK  202  A    between atoms: _468  and  _470
REMARK  203  A    between atoms: _470  and  _471
REMARK  204  A    between atoms: _473  and  _475
REMARK  205  A    between atoms: _475  and  _476
REMARK  206  A    between atoms: _478  and  _480
REMARK  207  A    between atoms: _480  and  _481
REMARK  208  A    between atoms: _483  and  _485
REMARK  209  A    between atoms: _485  and  _486
REMARK  210  A    between atoms: _485  and  _488
REMARK  211  A    between atoms: _490  and  _492
REMARK  212  A    between atoms: _492  and  _493
REMARK  213  A    between atoms: _492  and  _495
REMARK  214  A    between atoms: _495  and  _496
REMARK                            x       y       z     vdW  Elec       q    Type
REMARK                         _______ _______ _______ _____ _____    ______ ____
ROOT
ATOM      1  O   HOH     1      29.892  19.531  51.112  0.00  0.00    +0.000 OA
ENDROOT
TORSDOF 0
REMARK  Name = ../refined-set-2016/2oi2/2oi2_pocket.pdb
REMARK  214 active torsions:
REMARK  status: ('A' for Active; 'I' for Inactive)
REMARK    1  A    between atoms: _1  and  _3
REMARK    2  A    between atoms: _3  and  _4
REMARK    3  A    between atoms: _3  and  _6
REMARK    4  A    between atoms: _6  and  _7
REMARK    5  A    between atoms: _9  and  _11
REMARK    6  A    between atoms: _11  and  _12
REMARK    7  A    between atoms: _11  and  _14
REMARK    8  A    between atoms: _14  and  _15
REMARK    9  A    between atoms: _15  and  _16
REMARK   10  A    between atoms: _16  and  _17
REMARK   11  A    between atoms: _17  and  _18
REMARK   12  A    between atoms: _22  and  _24
REMARK   13  A    between atoms: _24  and  _25
REMARK   14  A    between atoms: _24  and  _27
REMARK   15  A    between atoms: _27  and  _28
REMARK   16  A    between atoms: _31  and  _33
REMARK   17  A    between atoms: _33  and  _34
REMARK   18  A    between atoms: _33  and  _36
REMARK   19  A    between atoms: _36  and  _37
REMARK   20  A    between atoms: _40  and  _42
REMARK   21  A    between atoms: _42  and  _43
REMARK   22  A    between atoms: _45  and  _47
REMARK   23  A    between atoms: _47  and  _48
REMARK   24  A    between atoms: _47  and  _50
REMARK   25  A    between atoms: _50  and  _51
REMARK   26  A    between atoms: _51  and  _52
REMARK   27  A    between atoms: _55  and  _57
REMARK   28  A    between atoms: _57  and  _58
REMARK   29  A    between atoms: _57  and  _60
REMARK   30  A    between atoms: _60  and  _61
REMARK   31  A    between atoms: _66  and  _68
REMARK   32  A    between atoms: _68  and  _69
REMARK   33  A    between atoms: _72  and  _74
REMARK   34  A    between atoms: _74  and  _75
REMARK   35  A    between atoms: _74  and  _77
REMARK   36  A    between atoms: _80  and  _82
REMARK   37  A    between atoms: _82  and  _83
REMARK   38  A    between atoms: _82  and  _85
REMARK   39  A    between atoms: _88  and  _90
REMARK   40  A    between atoms: _90  and  _91
REMARK   41  A    between atoms: _90  and  _93
REMARK   42  A    between atoms: _93  and  _94
REMARK   43  A    between atoms: _99  and  _100
REMARK   44  A    between atoms: _102  and  _104
REMARK   45  A    between atoms: _104  and  _105
REMARK   46  A    between atoms: _107  and  _109
REMARK   47  A    between atoms: _109  and  _110
REMARK   48  A    between atoms: _113  and  _115
REMARK   49  A    between atoms: _115  and  _116
REMARK   50  A    between atoms: _115  and  _118
REMARK   51  A    between atoms: _118  and  _119
REMARK   52  A    between atoms: _121  and  _123
REMARK   53  A    between atoms: _123  and  _124
REMARK   54  A    between atoms: _123  and  _126
REMARK   55  A    between atoms: _126  and  _127
REMARK   56  A    between atoms: _130  and  _132
REMARK   57  A    between atoms: _132  and  _133
REMARK   58  A    between atoms: _135  and  _137
REMARK   59  A    between atoms: _137  and  _138
REMARK   60  A    between atoms: _137  and  _140
REMARK   61  A    between atoms: _140  and  _141
REMARK   62  A    between atoms: _141  and  _142
REMARK   63  A    between atoms: _144  and  _146
REMARK   64  A    between atoms: _146  and  _147
REMARK   65  A    between atoms: _149  and  _151
REMARK   66  A    between atoms: _151  and  _152
REMARK   67  A    between atoms: _151  and  _154
REMARK   68  A    between atoms: _154  and  _155
REMARK   69  A    between atoms: _157  and  _159
REMARK   70  A    between atoms: _159  and  _160
REMARK   71  A    between atoms: _159  and  _162
REMARK   72  A    between atoms: _162  and  _163
REMARK   73  A    between atoms: _165  and  _167
REMARK   74  A    between atoms: _167  and  _168
REMARK   75  A    between atoms: _171  and  _173
REMARK   76  A    between atoms: _173  and  _174
REMARK   77  A    between atoms: _177  and  _179
REMARK   78  A    between atoms: _179  and  _180
REMARK   79  A    between atoms: _179  and  _182
REMARK   80  A    between atoms: _182  and  _183
REMARK   81  A    between atoms: _186  and  _188
REMARK   82  A    between atoms: _188  and  _189
REMARK   83  A    between atoms: _188  and  _191
REMARK   84  A    between atoms: _191  and  _192
REMARK   85  A    between atoms: _194  and  _196
REMARK   86  A    between atoms: _196  and  _197
REMARK   87  A    between atoms: _196  and  _199
REMARK   88  A    between atoms: _199  and  _200
REMARK   89  A    between atoms: _205  and  _207
REMARK   90  A    between atoms: _207  and  _208
REMARK   91  A    between atoms: _207  and  _210
REMARK   92  A    between atoms: _210  and  _211
REMARK   93  A    between atoms: _211  and  _212
REMARK   94  A    between atoms: _215  and  _217
REMARK   95  A    between atoms: _217  and  _218
REMARK   96  A    between atoms: _217  and  _220
REMARK   97  A    between atoms: _220  and  _221
REMARK   98  A    between atoms: _221  and  _222
REMARK   99  A    between atoms: _224  and  _226
REMARK  100  A    between atoms: _226  and  _227
REMARK  101  A    between atoms: _226  and  _229
REMARK  102  A    between atoms: _229  and  _230
REMARK  103  A    between atoms: _236  and  _237
REMARK  104  A    between atoms: _242  and  _244
REMARK  105  A    between atoms: _244  and  _245
REMARK  106  A    between atoms: _244  and  _247
REMARK  107  A    between atoms: _247  and  _248
REMARK  108  A    between atoms: _250  and  _252
REMARK  109  A    between atoms: _252  and  _253
REMARK  110  A    between atoms: _255  and  _257
REMARK  111  A    between atoms: _257  and  _258
REMARK  112  A    between atoms: _257  and  _260
REMARK  113  A    between atoms: _260  and  _261
REMARK  114  A    between atoms: _264  and  _266
REMARK  115  A    between atoms: _266  and  _267
REMARK  116  A    between atoms: _266  and  _269
REMARK  117  A    between atoms: _269  and  _270
REMARK  118  A    between atoms: _270  and  _272
REMARK  119  A    between atoms: _272  and  MG_501
REMARK  120  A    between atoms: _273  and  _275
REMARK  121  A    between atoms: _275  and  _276
REMARK  122  A    between atoms: _279  and  _281
REMARK  123  A    between atoms: _281  and  _282
REMARK  124  A    between atoms: _281  and  _284
REMARK  125  A    between atoms: _284  and  _285
REMARK  126  A    between atoms: _285  and  _286
REMARK  127  A    between atoms: _286  and  _287
REMARK  128  A    between atoms: _287  and  _288
REMARK  129  A    between atoms: _292  and  _294
REMARK  130  A    between atoms: _294  and  _295
REMARK  131  A    between atoms: _294  and  _297
REMARK  132  A    between atoms: _297  and  _298
REMARK  133  A    between atoms: _301  and  _303
REMARK  134  A    between atoms: _303  and  _304
REMARK  135  A    between atoms: _303  and  _306
REMARK  136  A    between atoms: _308  and  _310
REMARK  137  A    between atoms: _310  and  _311
REMARK  138  A    between atoms: _310  and  _313
REMARK  139  A    between atoms: _313  and  _314
REMARK  140  A    between atoms: _320  and  _322
REMARK  141  A    between atoms: _322  and  _323
REMARK  142  A    between atoms: _322  and  _325
REMARK  143  A    between atoms: _325  and  _326
REMARK  144  A    between atoms: _326  and  _327
REMARK  145  A    between atoms: _327  and  _328
REMARK  146  A    between atoms: _328  and  _329
REMARK  147  A    between atoms: _333  and  _335
REMARK  148  A    between atoms: _335  and  _336
REMARK  149  A    between atoms: _335  and  _338
REMARK  150  A    between atoms: _338  and  _339
REMARK  151  A    between atoms: _344  and  _345
REMARK  152  A    between atoms: _347  and  _349
REMARK  153  A    between atoms: _349  and  _350
REMARK  154  A    between atoms: _352  and  _354
REMARK  155  A    between atoms: _354  and  _355
REMARK  156  A    between atoms: _354  and  _357
REMARK  157  A    between atoms: _357  and  _358
REMARK  158  A    between atoms: _363  and  _365
REMARK  159  A    between atoms: _365  and  _366
REMARK  160  A    between atoms: _365  and  _368
REMARK  161  A    between atoms: _368  and  _369
REMARK  162  A    between atoms: _372  and  _374
REMARK  163  A    between atoms: _374  and  _375
REMARK  164  A    between atoms: _374  and  _377
REMARK  165  A    between atoms: _377  and  _378
REMARK  166  A    between atoms: _378  and  _379
REMARK  167  A    between atoms: _379  and  _380
REMARK  168  A    between atoms: _389  and  _391
REMARK  169  A    between atoms: _391  and  _392
REMARK  170  A    between atoms: _395  and  _397
REMARK  171  A    between atoms: _397  and  _398
REMARK  172  A    between atoms: _397  and  _400
REMARK  173  A    between atoms: _400  and  _401
REMARK  174  A    between atoms: _404  and  _406
REMARK  175  A    between atoms: _406  and  _407
REMARK  176  A    between atoms: _406  and  _409
REMARK  177  A    between atoms: _409  and  _410
REMARK  178  A    between atoms: _410  and  _411
REMARK  179  A    between atoms: _416  and  _418
REMARK  180  A    between atoms: _418  and  _419
REMARK  181  A    between atoms: _418  and  _421
REMARK  182  A    between atoms: _424  and  _426
REMARK  183  A    between atoms: _426  and  _427
REMARK  184  A    between atoms: _426  and  _429
REMARK  185  A    between atoms: _429  and  _430
REMARK  186  A    between atoms: _433  and  _435
REMARK  187  A    between atoms: _435  and  _436
REMARK  188  A    between atoms: _435  and  _438
REMARK  189  A    between atoms: _441  and  _443
REMARK  190  A    between atoms: _443  and  _444
REMARK  191  A    between atoms: _443  and  _446
REMARK  192  A    between atoms: _446  and  _447
REMARK  193  A    between atoms: _447  and  _448
REMARK  194  A    between atoms: _450  and  _452
REMARK  195  A    between atoms: _452  and  _453
REMARK  196  A    between atoms: _452  and  _455
REMARK  197  A    between atoms: _455  and  _456
REMARK  198  A    between atoms: _458  and  _460
REMARK  199  A    between atoms: _460  and  _461
REMARK  200  A    between atoms: _463  and  _465
REMARK  201  A    between atoms: _465  and  _466
REMARK  202  A    between atoms: _468  and  _470
REMARK  203  A    between atoms: _470  and  _471
REMARK  204  A    between atoms: _473  and  _475
REMARK  205  A    between atoms: _475  and  _476
REMARK  206  A    between atoms: _478  and  _480
REMARK  207  A    between atoms: _480  and  _481
REMARK  208  A    between atoms: _483  and  _485
REMARK  209  A    between atoms: _485  and  _486
REMARK  210  A    between atoms: _485  and  _488
REMARK  211  A    between atoms: _490  and  _492
REMARK  212  A    between atoms: _492  and  _493
REMARK  213  A    between atoms: _492  and  _495
REMARK  214  A    between atoms: _495  and  _496
REMARK                            x       y       z     vdW  Elec       q    Type
REMARK                         _______ _______ _______ _____ _____    ______ ____
ROOT
ATOM      1  O   HOH     1      30.088  20.545  47.204  0.00  0.00    +0.000 OA
ENDROOT
TORSDOF 0
REMARK  Name = ../refined-set-2016/2oi2/2oi2_pocket.pdb
REMARK  214 active torsions:
REMARK  status: ('A' for Active; 'I' for Inactive)
REMARK    1  A    between atoms: _1  and  _3
REMARK    2  A    between atoms: _3  and  _4
REMARK    3  A    between atoms: _3  and  _6
REMARK    4  A    between atoms: _6  and  _7
REMARK    5  A    between atoms: _9  and  _11
REMARK    6  A    between atoms: _11  and  _12
REMARK    7  A    between atoms: _11  and  _14
REMARK    8  A    between atoms: _14  and  _15
REMARK    9  A    between atoms: _15  and  _16
REMARK   10  A    between atoms: _16  and  _17
REMARK   11  A    between atoms: _17  and  _18
REMARK   12  A    between atoms: _22  and  _24
REMARK   13  A    between atoms: _24  and  _25
REMARK   14  A    between atoms: _24  and  _27
REMARK   15  A    between atoms: _27  and  _28
REMARK   16  A    between atoms: _31  and  _33
REMARK   17  A    between atoms: _33  and  _34
REMARK   18  A    between atoms: _33  and  _36
REMARK   19  A    between atoms: _36  and  _37
REMARK   20  A    between atoms: _40  and  _42
REMARK   21  A    between atoms: _42  and  _43
REMARK   22  A    between atoms: _45  and  _47
REMARK   23  A    between atoms: _47  and  _48
REMARK   24  A    between atoms: _47  and  _50
REMARK   25  A    between atoms: _50  and  _51
REMARK   26  A    between atoms: _51  and  _52
REMARK   27  A    between atoms: _55  and  _57
REMARK   28  A    between atoms: _57  and  _58
REMARK   29  A    between atoms: _57  and  _60
REMARK   30  A    between atoms: _60  and  _61
REMARK   31  A    between atoms: _66  and  _68
REMARK   32  A    between atoms: _68  and  _69
REMARK   33  A    between atoms: _72  and  _74
REMARK   34  A    between atoms: _74  and  _75
REMARK   35  A    between atoms: _74  and  _77
REMARK   36  A    between atoms: _80  and  _82
REMARK   37  A    between atoms: _82  and  _83
REMARK   38  A    between atoms: _82  and  _85
REMARK   39  A    between atoms: _88  and  _90
REMARK   40  A    between atoms: _90  and  _91
REMARK   41  A    between atoms: _90  and  _93
REMARK   42  A    between atoms: _93  and  _94
REMARK   43  A    between atoms: _99  and  _100
REMARK   44  A    between atoms: _102  and  _104
REMARK   45  A    between atoms: _104  and  _105
REMARK   46  A    between atoms: _107  and  _109
REMARK   47  A    between atoms: _109  and  _110
REMARK   48  A    between atoms: _113  and  _115
REMARK   49  A    between atoms: _115  and  _116
REMARK   50  A    between atoms: _115  and  _118
REMARK   51  A    between atoms: _118  and  _119
REMARK   52  A    between atoms: _121  and  _123
REMARK   53  A    between atoms: _123  and  _124
REMARK   54  A    between atoms: _123  and  _126
REMARK   55  A    between atoms: _126  and  _127
REMARK   56  A    between atoms: _130  and  _132
REMARK   57  A    between atoms: _132  and  _133
REMARK   58  A    between atoms: _135  and  _137
REMARK   59  A    between atoms: _137  and  _138
REMARK   60  A    between atoms: _137  and  _140
REMARK   61  A    between atoms: _140  and  _141
REMARK   62  A    between atoms: _141  and  _142
REMARK   63  A    between atoms: _144  and  _146
REMARK   64  A    between atoms: _146  and  _147
REMARK   65  A    between atoms: _149  and  _151
REMARK   66  A    between atoms: _151  and  _152
REMARK   67  A    between atoms: _151  and  _154
REMARK   68  A    between atoms: _154  and  _155
REMARK   69  A    between atoms: _157  and  _159
REMARK   70  A    between atoms: _159  and  _160
REMARK   71  A    between atoms: _159  and  _162
REMARK   72  A    between atoms: _162  and  _163
REMARK   73  A    between atoms: _165  and  _167
REMARK   74  A    between atoms: _167  and  _168
REMARK   75  A    between atoms: _171  and  _173
REMARK   76  A    between atoms: _173  and  _174
REMARK   77  A    between atoms: _177  and  _179
REMARK   78  A    between atoms: _179  and  _180
REMARK   79  A    between atoms: _179  and  _182
REMARK   80  A    between atoms: _182  and  _183
REMARK   81  A    between atoms: _186  and  _188
REMARK   82  A    between atoms: _188  and  _189
REMARK   83  A    between atoms: _188  and  _191
REMARK   84  A    between atoms: _191  and  _192
REMARK   85  A    between atoms: _194  and  _196
REMARK   86  A    between atoms: _196  and  _197
REMARK   87  A    between atoms: _196  and  _199
REMARK   88  A    between atoms: _199  and  _200
REMARK   89  A    between atoms: _205  and  _207
REMARK   90  A    between atoms: _207  and  _208
REMARK   91  A    between atoms: _207  and  _210
REMARK   92  A    between atoms: _210  and  _211
REMARK   93  A    between atoms: _211  and  _212
REMARK   94  A    between atoms: _215  and  _217
REMARK   95  A    between atoms: _217  and  _218
REMARK   96  A    between atoms: _217  and  _220
REMARK   97  A    between atoms: _220  and  _221
REMARK   98  A    between atoms: _221  and  _222
REMARK   99  A    between atoms: _224  and  _226
REMARK  100  A    between atoms: _226  and  _227
REMARK  101  A    between atoms: _226  and  _229
REMARK  102  A    between atoms: _229  and  _230
REMARK  103  A    between atoms: _236  and  _237
REMARK  104  A    between atoms: _242  and  _244
REMARK  105  A    between atoms: _244  and  _245
REMARK  106  A    between atoms: _244  and  _247
REMARK  107  A    between atoms: _247  and  _248
REMARK  108  A    between atoms: _250  and  _252
REMARK  109  A    between atoms: _252  and  _253
REMARK  110  A    between atoms: _255  and  _257
REMARK  111  A    between atoms: _257  and  _258
REMARK  112  A    between atoms: _257  and  _260
REMARK  113  A    between atoms: _260  and  _261
REMARK  114  A    between atoms: _264  and  _266
REMARK  115  A    between atoms: _266  and  _267
REMARK  116  A    between atoms: _266  and  _269
REMARK  117  A    between atoms: _269  and  _270
REMARK  118  A    between atoms: _270  and  _272
REMARK  119  A    between atoms: _272  and  MG_501
REMARK  120  A    between atoms: _273  and  _275
REMARK  121  A    between atoms: _275  and  _276
REMARK  122  A    between atoms: _279  and  _281
REMARK  123  A    between atoms: _281  and  _282
REMARK  124  A    between atoms: _281  and  _284
REMARK  125  A    between atoms: _284  and  _285
REMARK  126  A    between atoms: _285  and  _286
REMARK  127  A    between atoms: _286  and  _287
REMARK  128  A    between atoms: _287  and  _288
REMARK  129  A    between atoms: _292  and  _294
REMARK  130  A    between atoms: _294  and  _295
REMARK  131  A    between atoms: _294  and  _297
REMARK  132  A    between atoms: _297  and  _298
REMARK  133  A    between atoms: _301  and  _303
REMARK  134  A    between atoms: _303  and  _304
REMARK  135  A    between atoms: _303  and  _306
REMARK  136  A    between atoms: _308  and  _310
REMARK  137  A    between atoms: _310  and  _311
REMARK  138  A    between atoms: _310  and  _313
REMARK  139  A    between atoms: _313  and  _314
REMARK  140  A    between atoms: _320  and  _322
REMARK  141  A    between atoms: _322  and  _323
REMARK  142  A    between atoms: _322  and  _325
REMARK  143  A    between atoms: _325  and  _326
REMARK  144  A    between atoms: _326  and  _327
REMARK  145  A    between atoms: _327  and  _328
REMARK  146  A    between atoms: _328  and  _329
REMARK  147  A    between atoms: _333  and  _335
REMARK  148  A    between atoms: _335  and  _336
REMARK  149  A    between atoms: _335  and  _338
REMARK  150  A    between atoms: _338  and  _339
REMARK  151  A    between atoms: _344  and  _345
REMARK  152  A    between atoms: _347  and  _349
REMARK  153  A    between atoms: _349  and  _350
REMARK  154  A    between atoms: _352  and  _354
REMARK  155  A    between atoms: _354  and  _355
REMARK  156  A    between atoms: _354  and  _357
REMARK  157  A    between atoms: _357  and  _358
REMARK  158  A    between atoms: _363  and  _365
REMARK  159  A    between atoms: _365  and  _366
REMARK  160  A    between atoms: _365  and  _368
REMARK  161  A    between atoms: _368  and  _369
REMARK  162  A    between atoms: _372  and  _374
REMARK  163  A    between atoms: _374  and  _375
REMARK  164  A    between atoms: _374  and  _377
REMARK  165  A    between atoms: _377  and  _378
REMARK  166  A    between atoms: _378  and  _379
REMARK  167  A    between atoms: _379  and  _380
REMARK  168  A    between atoms: _389  and  _391
REMARK  169  A    between atoms: _391  and  _392
REMARK  170  A    between atoms: _395  and  _397
REMARK  171  A    between atoms: _397  and  _398
REMARK  172  A    between atoms: _397  and  _400
REMARK  173  A    between atoms: _400  and  _401
REMARK  174  A    between atoms: _404  and  _406
REMARK  175  A    between atoms: _406  and  _407
REMARK  176  A    between atoms: _406  and  _409
REMARK  177  A    between atoms: _409  and  _410
REMARK  178  A    between atoms: _410  and  _411
REMARK  179  A    between atoms: _416  and  _418
REMARK  180  A    between atoms: _418  and  _419
REMARK  181  A    between atoms: _418  and  _421
REMARK  182  A    between atoms: _424  and  _426
REMARK  183  A    between atoms: _426  and  _427
REMARK  184  A    between atoms: _426  and  _429
REMARK  185  A    between atoms: _429  and  _430
REMARK  186  A    between atoms: _433  and  _435
REMARK  187  A    between atoms: _435  and  _436
REMARK  188  A    between atoms: _435  and  _438
REMARK  189  A    between atoms: _441  and  _443
REMARK  190  A    between atoms: _443  and  _444
REMARK  191  A    between atoms: _443  and  _446
REMARK  192  A    between atoms: _446  and  _447
REMARK  193  A    between atoms: _447  and  _448
REMARK  194  A    between atoms: _450  and  _452
REMARK  195  A    between atoms: _452  and  _453
REMARK  196  A    between atoms: _452  and  _455
REMARK  197  A    between atoms: _455  and  _456
REMARK  198  A    between atoms: _458  and  _460
REMARK  199  A    between atoms: _460  and  _461
REMARK  200  A    between atoms: _463  and  _465
REMARK  201  A    between atoms: _465  and  _466
REMARK  202  A    between atoms: _468  and  _470
REMARK  203  A    between atoms: _470  and  _471
REMARK  204  A    between atoms: _473  and  _475
REMARK  205  A    between atoms: _475  and  _476
REMARK  206  A    between atoms: _478  and  _480
REMARK  207  A    between atoms: _480  and  _481
REMARK  208  A    between atoms: _483  and  _485
REMARK  209  A    between atoms: _485  and  _486
REMARK  210  A    between atoms: _485  and  _488
REMARK  211  A    between atoms: _490  and  _492
REMARK  212  A    between atoms: _492  and  _493
REMARK  213  A    between atoms: _492  and  _495
REMARK  214  A    between atoms: _495  and  _496
REMARK                            x       y       z     vdW  Elec       q    Type
REMARK                         _______ _______ _______ _____ _____    ______ ____
ROOT
ATOM      1  O   HOH     1      27.421  29.777  40.793  0.00  0.00    +0.000 OA
ENDROOT
TORSDOF 0
REMARK  Name = ../refined-set-2016/2oi2/2oi2_pocket.pdb
REMARK  214 active torsions:
REMARK  status: ('A' for Active; 'I' for Inactive)
REMARK    1  A    between atoms: _1  and  _3
REMARK    2  A    between atoms: _3  and  _4
REMARK    3  A    between atoms: _3  and  _6
REMARK    4  A    between atoms: _6  and  _7
REMARK    5  A    between atoms: _9  and  _11
REMARK    6  A    between atoms: _11  and  _12
REMARK    7  A    between atoms: _11  and  _14
REMARK    8  A    between atoms: _14  and  _15
REMARK    9  A    between atoms: _15  and  _16
REMARK   10  A    between atoms: _16  and  _17
REMARK   11  A    between atoms: _17  and  _18
REMARK   12  A    between atoms: _22  and  _24
REMARK   13  A    between atoms: _24  and  _25
REMARK   14  A    between atoms: _24  and  _27
REMARK   15  A    between atoms: _27  and  _28
REMARK   16  A    between atoms: _31  and  _33
REMARK   17  A    between atoms: _33  and  _34
REMARK   18  A    between atoms: _33  and  _36
REMARK   19  A    between atoms: _36  and  _37
REMARK   20  A    between atoms: _40  and  _42
REMARK   21  A    between atoms: _42  and  _43
REMARK   22  A    between atoms: _45  and  _47
REMARK   23  A    between atoms: _47  and  _48
REMARK   24  A    between atoms: _47  and  _50
REMARK   25  A    between atoms: _50  and  _51
REMARK   26  A    between atoms: _51  and  _52
REMARK   27  A    between atoms: _55  and  _57
REMARK   28  A    between atoms: _57  and  _58
REMARK   29  A    between atoms: _57  and  _60
REMARK   30  A    between atoms: _60  and  _61
REMARK   31  A    between atoms: _66  and  _68
REMARK   32  A    between atoms: _68  and  _69
REMARK   33  A    between atoms: _72  and  _74
REMARK   34  A    between atoms: _74  and  _75
REMARK   35  A    between atoms: _74  and  _77
REMARK   36  A    between atoms: _80  and  _82
REMARK   37  A    between atoms: _82  and  _83
REMARK   38  A    between atoms: _82  and  _85
REMARK   39  A    between atoms: _88  and  _90
REMARK   40  A    between atoms: _90  and  _91
REMARK   41  A    between atoms: _90  and  _93
REMARK   42  A    between atoms: _93  and  _94
REMARK   43  A    between atoms: _99  and  _100
REMARK   44  A    between atoms: _102  and  _104
REMARK   45  A    between atoms: _104  and  _105
REMARK   46  A    between atoms: _107  and  _109
REMARK   47  A    between atoms: _109  and  _110
REMARK   48  A    between atoms: _113  and  _115
REMARK   49  A    between atoms: _115  and  _116
REMARK   50  A    between atoms: _115  and  _118
REMARK   51  A    between atoms: _118  and  _119
REMARK   52  A    between atoms: _121  and  _123
REMARK   53  A    between atoms: _123  and  _124
REMARK   54  A    between atoms: _123  and  _126
REMARK   55  A    between atoms: _126  and  _127
REMARK   56  A    between atoms: _130  and  _132
REMARK   57  A    between atoms: _132  and  _133
REMARK   58  A    between atoms: _135  and  _137
REMARK   59  A    between atoms: _137  and  _138
REMARK   60  A    between atoms: _137  and  _140
REMARK   61  A    between atoms: _140  and  _141
REMARK   62  A    between atoms: _141  and  _142
REMARK   63  A    between atoms: _144  and  _146
REMARK   64  A    between atoms: _146  and  _147
REMARK   65  A    between atoms: _149  and  _151
REMARK   66  A    between atoms: _151  and  _152
REMARK   67  A    between atoms: _151  and  _154
REMARK   68  A    between atoms: _154  and  _155
REMARK   69  A    between atoms: _157  and  _159
REMARK   70  A    between atoms: _159  and  _160
REMARK   71  A    between atoms: _159  and  _162
REMARK   72  A    between atoms: _162  and  _163
REMARK   73  A    between atoms: _165  and  _167
REMARK   74  A    between atoms: _167  and  _168
REMARK   75  A    between atoms: _171  and  _173
REMARK   76  A    between atoms: _173  and  _174
REMARK   77  A    between atoms: _177  and  _179
REMARK   78  A    between atoms: _179  and  _180
REMARK   79  A    between atoms: _179  and  _182
REMARK   80  A    between atoms: _182  and  _183
REMARK   81  A    between atoms: _186  and  _188
REMARK   82  A    between atoms: _188  and  _189
REMARK   83  A    between atoms: _188  and  _191
REMARK   84  A    between atoms: _191  and  _192
REMARK   85  A    between atoms: _194  and  _196
REMARK   86  A    between atoms: _196  and  _197
REMARK   87  A    between atoms: _196  and  _199
REMARK   88  A    between atoms: _199  and  _200
REMARK   89  A    between atoms: _205  and  _207
REMARK   90  A    between atoms: _207  and  _208
REMARK   91  A    between atoms: _207  and  _210
REMARK   92  A    between atoms: _210  and  _211
REMARK   93  A    between atoms: _211  and  _212
REMARK   94  A    between atoms: _215  and  _217
REMARK   95  A    between atoms: _217  and  _218
REMARK   96  A    between atoms: _217  and  _220
REMARK   97  A    between atoms: _220  and  _221
REMARK   98  A    between atoms: _221  and  _222
REMARK   99  A    between atoms: _224  and  _226
REMARK  100  A    between atoms: _226  and  _227
REMARK  101  A    between atoms: _226  and  _229
REMARK  102  A    between atoms: _229  and  _230
REMARK  103  A    between atoms: _236  and  _237
REMARK  104  A    between atoms: _242  and  _244
REMARK  105  A    between atoms: _244  and  _245
REMARK  106  A    between atoms: _244  and  _247
REMARK  107  A    between atoms: _247  and  _248
REMARK  108  A    between atoms: _250  and  _252
REMARK  109  A    between atoms: _252  and  _253
REMARK  110  A    between atoms: _255  and  _257
REMARK  111  A    between atoms: _257  and  _258
REMARK  112  A    between atoms: _257  and  _260
REMARK  113  A    between atoms: _260  and  _261
REMARK  114  A    between atoms: _264  and  _266
REMARK  115  A    between atoms: _266  and  _267
REMARK  116  A    between atoms: _266  and  _269
REMARK  117  A    between atoms: _269  and  _270
REMARK  118  A    between atoms: _270  and  _272
REMARK  119  A    between atoms: _272  and  MG_501
REMARK  120  A    between atoms: _273  and  _275
REMARK  121  A    between atoms: _275  and  _276
REMARK  122  A    between atoms: _279  and  _281
REMARK  123  A    between atoms: _281  and  _282
REMARK  124  A    between atoms: _281  and  _284
REMARK  125  A    between atoms: _284  and  _285
REMARK  126  A    between atoms: _285  and  _286
REMARK  127  A    between atoms: _286  and  _287
REMARK  128  A    between atoms: _287  and  _288
REMARK  129  A    between atoms: _292  and  _294
REMARK  130  A    between atoms: _294  and  _295
REMARK  131  A    between atoms: _294  and  _297
REMARK  132  A    between atoms: _297  and  _298
REMARK  133  A    between atoms: _301  and  _303
REMARK  134  A    between atoms: _303  and  _304
REMARK  135  A    between atoms: _303  and  _306
REMARK  136  A    between atoms: _308  and  _310
REMARK  137  A    between atoms: _310  and  _311
REMARK  138  A    between atoms: _310  and  _313
REMARK  139  A    between atoms: _313  and  _314
REMARK  140  A    between atoms: _320  and  _322
REMARK  141  A    between atoms: _322  and  _323
REMARK  142  A    between atoms: _322  and  _325
REMARK  143  A    between atoms: _325  and  _326
REMARK  144  A    between atoms: _326  and  _327
REMARK  145  A    between atoms: _327  and  _328
REMARK  146  A    between atoms: _328  and  _329
REMARK  147  A    between atoms: _333  and  _335
REMARK  148  A    between atoms: _335  and  _336
REMARK  149  A    between atoms: _335  and  _338
REMARK  150  A    between atoms: _338  and  _339
REMARK  151  A    between atoms: _344  and  _345
REMARK  152  A    between atoms: _347  and  _349
REMARK  153  A    between atoms: _349  and  _350
REMARK  154  A    between atoms: _352  and  _354
REMARK  155  A    between atoms: _354  and  _355
REMARK  156  A    between atoms: _354  and  _357
REMARK  157  A    between atoms: _357  and  _358
REMARK  158  A    between atoms: _363  and  _365
REMARK  159  A    between atoms: _365  and  _366
REMARK  160  A    between atoms: _365  and  _368
REMARK  161  A    between atoms: _368  and  _369
REMARK  162  A    between atoms: _372  and  _374
REMARK  163  A    between atoms: _374  and  _375
REMARK  164  A    between atoms: _374  and  _377
REMARK  165  A    between atoms: _377  and  _378
REMARK  166  A    between atoms: _378  and  _379
REMARK  167  A    between atoms: _379  and  _380
REMARK  168  A    between atoms: _389  and  _391
REMARK  169  A    between atoms: _391  and  _392
REMARK  170  A    between atoms: _395  and  _397
REMARK  171  A    between atoms: _397  and  _398
REMARK  172  A    between atoms: _397  and  _400
REMARK  173  A    between atoms: _400  and  _401
REMARK  174  A    between atoms: _404  and  _406
REMARK  175  A    between atoms: _406  and  _407
REMARK  176  A    between atoms: _406  and  _409
REMARK  177  A    between atoms: _409  and  _410
REMARK  178  A    between atoms: _410  and  _411
REMARK  179  A    between atoms: _416  and  _418
REMARK  180  A    between atoms: _418  and  _419
REMARK  181  A    between atoms: _418  and  _421
REMARK  182  A    between atoms: _424  and  _426
REMARK  183  A    between atoms: _426  and  _427
REMARK  184  A    between atoms: _426  and  _429
REMARK  185  A    between atoms: _429  and  _430
REMARK  186  A    between atoms: _433  and  _435
REMARK  187  A    between atoms: _435  and  _436
REMARK  188  A    between atoms: _435  and  _438
REMARK  189  A    between atoms: _441  and  _443
REMARK  190  A    between atoms: _443  and  _444
REMARK  191  A    between atoms: _443  and  _446
REMARK  192  A    between atoms: _446  and  _447
REMARK  193  A    between atoms: _447  and  _448
REMARK  194  A    between atoms: _450  and  _452
REMARK  195  A    between atoms: _452  and  _453
REMARK  196  A    between atoms: _452  and  _455
REMARK  197  A    between atoms: _455  and  _456
REMARK  198  A    between atoms: _458  and  _460
REMARK  199  A    between atoms: _460  and  _461
REMARK  200  A    between atoms: _463  and  _465
REMARK  201  A    between atoms: _465  and  _466
REMARK  202  A    between atoms: _468  and  _470
REMARK  203  A    between atoms: _470  and  _471
REMARK  204  A    between atoms: _473  and  _475
REMARK  205  A    between atoms: _475  and  _476
REMARK  206  A    between atoms: _478  and  _480
REMARK  207  A    between atoms: _480  and  _481
REMARK  208  A    between atoms: _483  and  _485
REMARK  209  A    between atoms: _485  and  _486
REMARK  210  A    between atoms: _485  and  _488
REMARK  211  A    between atoms: _490  and  _492
REMARK  212  A    between atoms: _492  and  _493
REMARK  213  A    between atoms: _492  and  _495
REMARK  214  A    between atoms: _495  and  _496
REMARK                            x       y       z     vdW  Elec       q    Type
REMARK                         _______ _______ _______ _____ _____    ______ ____
ROOT
ATOM      1  O   HOH     1      24.349  16.439  41.620  0.00  0.00    +0.000 OA
ENDROOT
TORSDOF 0
REMARK  Name = ../refined-set-2016/2oi2/2oi2_pocket.pdb
REMARK  214 active torsions:
REMARK  status: ('A' for Active; 'I' for Inactive)
REMARK    1  A    between atoms: _1  and  _3
REMARK    2  A    between atoms: _3  and  _4
REMARK    3  A    between atoms: _3  and  _6
REMARK    4  A    between atoms: _6  and  _7
REMARK    5  A    between atoms: _9  and  _11
REMARK    6  A    between atoms: _11  and  _12
REMARK    7  A    between atoms: _11  and  _14
REMARK    8  A    between atoms: _14  and  _15
REMARK    9  A    between atoms: _15  and  _16
REMARK   10  A    between atoms: _16  and  _17
REMARK   11  A    between atoms: _17  and  _18
REMARK   12  A    between atoms: _22  and  _24
REMARK   13  A    between atoms: _24  and  _25
REMARK   14  A    between atoms: _24  and  _27
REMARK   15  A    between atoms: _27  and  _28
REMARK   16  A    between atoms: _31  and  _33
REMARK   17  A    between atoms: _33  and  _34
REMARK   18  A    between atoms: _33  and  _36
REMARK   19  A    between atoms: _36  and  _37
REMARK   20  A    between atoms: _40  and  _42
REMARK   21  A    between atoms: _42  and  _43
REMARK   22  A    between atoms: _45  and  _47
REMARK   23  A    between atoms: _47  and  _48
REMARK   24  A    between atoms: _47  and  _50
REMARK   25  A    between atoms: _50  and  _51
REMARK   26  A    between atoms: _51  and  _52
REMARK   27  A    between atoms: _55  and  _57
REMARK   28  A    between atoms: _57  and  _58
REMARK   29  A    between atoms: _57  and  _60
REMARK   30  A    between atoms: _60  and  _61
REMARK   31  A    between atoms: _66  and  _68
REMARK   32  A    between atoms: _68  and  _69
REMARK   33  A    between atoms: _72  and  _74
REMARK   34  A    between atoms: _74  and  _75
REMARK   35  A    between atoms: _74  and  _77
REMARK   36  A    between atoms: _80  and  _82
REMARK   37  A    between atoms: _82  and  _83
REMARK   38  A    between atoms: _82  and  _85
REMARK   39  A    between atoms: _88  and  _90
REMARK   40  A    between atoms: _90  and  _91
REMARK   41  A    between atoms: _90  and  _93
REMARK   42  A    between atoms: _93  and  _94
REMARK   43  A    between atoms: _99  and  _100
REMARK   44  A    between atoms: _102  and  _104
REMARK   45  A    between atoms: _104  and  _105
REMARK   46  A    between atoms: _107  and  _109
REMARK   47  A    between atoms: _109  and  _110
REMARK   48  A    between atoms: _113  and  _115
REMARK   49  A    between atoms: _115  and  _116
REMARK   50  A    between atoms: _115  and  _118
REMARK   51  A    between atoms: _118  and  _119
REMARK   52  A    between atoms: _121  and  _123
REMARK   53  A    between atoms: _123  and  _124
REMARK   54  A    between atoms: _123  and  _126
REMARK   55  A    between atoms: _126  and  _127
REMARK   56  A    between atoms: _130  and  _132
REMARK   57  A    between atoms: _132  and  _133
REMARK   58  A    between atoms: _135  and  _137
REMARK   59  A    between atoms: _137  and  _138
REMARK   60  A    between atoms: _137  and  _140
REMARK   61  A    between atoms: _140  and  _141
REMARK   62  A    between atoms: _141  and  _142
REMARK   63  A    between atoms: _144  and  _146
REMARK   64  A    between atoms: _146  and  _147
REMARK   65  A    between atoms: _149  and  _151
REMARK   66  A    between atoms: _151  and  _152
REMARK   67  A    between atoms: _151  and  _154
REMARK   68  A    between atoms: _154  and  _155
REMARK   69  A    between atoms: _157  and  _159
REMARK   70  A    between atoms: _159  and  _160
REMARK   71  A    between atoms: _159  and  _162
REMARK   72  A    between atoms: _162  and  _163
REMARK   73  A    between atoms: _165  and  _167
REMARK   74  A    between atoms: _167  and  _168
REMARK   75  A    between atoms: _171  and  _173
REMARK   76  A    between atoms: _173  and  _174
REMARK   77  A    between atoms: _177  and  _179
REMARK   78  A    between atoms: _179  and  _180
REMARK   79  A    between atoms: _179  and  _182
REMARK   80  A    between atoms: _182  and  _183
REMARK   81  A    between atoms: _186  and  _188
REMARK   82  A    between atoms: _188  and  _189
REMARK   83  A    between atoms: _188  and  _191
REMARK   84  A    between atoms: _191  and  _192
REMARK   85  A    between atoms: _194  and  _196
REMARK   86  A    between atoms: _196  and  _197
REMARK   87  A    between atoms: _196  and  _199
REMARK   88  A    between atoms: _199  and  _200
REMARK   89  A    between atoms: _205  and  _207
REMARK   90  A    between atoms: _207  and  _208
REMARK   91  A    between atoms: _207  and  _210
REMARK   92  A    between atoms: _210  and  _211
REMARK   93  A    between atoms: _211  and  _212
REMARK   94  A    between atoms: _215  and  _217
REMARK   95  A    between atoms: _217  and  _218
REMARK   96  A    between atoms: _217  and  _220
REMARK   97  A    between atoms: _220  and  _221
REMARK   98  A    between atoms: _221  and  _222
REMARK   99  A    between atoms: _224  and  _226
REMARK  100  A    between atoms: _226  and  _227
REMARK  101  A    between atoms: _226  and  _229
REMARK  102  A    between atoms: _229  and  _230
REMARK  103  A    between atoms: _236  and  _237
REMARK  104  A    between atoms: _242  and  _244
REMARK  105  A    between atoms: _244  and  _245
REMARK  106  A    between atoms: _244  and  _247
REMARK  107  A    between atoms: _247  and  _248
REMARK  108  A    between atoms: _250  and  _252
REMARK  109  A    between atoms: _252  and  _253
REMARK  110  A    between atoms: _255  and  _257
REMARK  111  A    between atoms: _257  and  _258
REMARK  112  A    between atoms: _257  and  _260
REMARK  113  A    between atoms: _260  and  _261
REMARK  114  A    between atoms: _264  and  _266
REMARK  115  A    between atoms: _266  and  _267
REMARK  116  A    between atoms: _266  and  _269
REMARK  117  A    between atoms: _269  and  _270
REMARK  118  A    between atoms: _270  and  _272
REMARK  119  A    between atoms: _272  and  MG_501
REMARK  120  A    between atoms: _273  and  _275
REMARK  121  A    between atoms: _275  and  _276
REMARK  122  A    between atoms: _279  and  _281
REMARK  123  A    between atoms: _281  and  _282
REMARK  124  A    between atoms: _281  and  _284
REMARK  125  A    between atoms: _284  and  _285
REMARK  126  A    between atoms: _285  and  _286
REMARK  127  A    between atoms: _286  and  _287
REMARK  128  A    between atoms: _287  and  _288
REMARK  129  A    between atoms: _292  and  _294
REMARK  130  A    between atoms: _294  and  _295
REMARK  131  A    between atoms: _294  and  _297
REMARK  132  A    between atoms: _297  and  _298
REMARK  133  A    between atoms: _301  and  _303
REMARK  134  A    between atoms: _303  and  _304
REMARK  135  A    between atoms: _303  and  _306
REMARK  136  A    between atoms: _308  and  _310
REMARK  137  A    between atoms: _310  and  _311
REMARK  138  A    between atoms: _310  and  _313
REMARK  139  A    between atoms: _313  and  _314
REMARK  140  A    between atoms: _320  and  _322
REMARK  141  A    between atoms: _322  and  _323
REMARK  142  A    between atoms: _322  and  _325
REMARK  143  A    between atoms: _325  and  _326
REMARK  144  A    between atoms: _326  and  _327
REMARK  145  A    between atoms: _327  and  _328
REMARK  146  A    between atoms: _328  and  _329
REMARK  147  A    between atoms: _333  and  _335
REMARK  148  A    between atoms: _335  and  _336
REMARK  149  A    between atoms: _335  and  _338
REMARK  150  A    between atoms: _338  and  _339
REMARK  151  A    between atoms: _344  and  _345
REMARK  152  A    between atoms: _347  and  _349
REMARK  153  A    between atoms: _349  and  _350
REMARK  154  A    between atoms: _352  and  _354
REMARK  155  A    between atoms: _354  and  _355
REMARK  156  A    between atoms: _354  and  _357
REMARK  157  A    between atoms: _357  and  _358
REMARK  158  A    between atoms: _363  and  _365
REMARK  159  A    between atoms: _365  and  _366
REMARK  160  A    between atoms: _365  and  _368
REMARK  161  A    between atoms: _368  and  _369
REMARK  162  A    between atoms: _372  and  _374
REMARK  163  A    between atoms: _374  and  _375
REMARK  164  A    between atoms: _374  and  _377
REMARK  165  A    between atoms: _377  and  _378
REMARK  166  A    between atoms: _378  and  _379
REMARK  167  A    between atoms: _379  and  _380
REMARK  168  A    between atoms: _389  and  _391
REMARK  169  A    between atoms: _391  and  _392
REMARK  170  A    between atoms: _395  and  _397
REMARK  171  A    between atoms: _397  and  _398
REMARK  172  A    between atoms: _397  and  _400
REMARK  173  A    between atoms: _400  and  _401
REMARK  174  A    between atoms: _404  and  _406
REMARK  175  A    between atoms: _406  and  _407
REMARK  176  A    between atoms: _406  and  _409
REMARK  177  A    between atoms: _409  and  _410
REMARK  178  A    between atoms: _410  and  _411
REMARK  179  A    between atoms: _416  and  _418
REMARK  180  A    between atoms: _418  and  _419
REMARK  181  A    between atoms: _418  and  _421
REMARK  182  A    between atoms: _424  and  _426
REMARK  183  A    between atoms: _426  and  _427
REMARK  184  A    between atoms: _426  and  _429
REMARK  185  A    between atoms: _429  and  _430
REMARK  186  A    between atoms: _433  and  _435
REMARK  187  A    between atoms: _435  and  _436
REMARK  188  A    between atoms: _435  and  _438
REMARK  189  A    between atoms: _441  and  _443
REMARK  190  A    between atoms: _443  and  _444
REMARK  191  A    between atoms: _443  and  _446
REMARK  192  A    between atoms: _446  and  _447
REMARK  193  A    between atoms: _447  and  _448
REMARK  194  A    between atoms: _450  and  _452
REMARK  195  A    between atoms: _452  and  _453
REMARK  196  A    between atoms: _452  and  _455
REMARK  197  A    between atoms: _455  and  _456
REMARK  198  A    between atoms: _458  and  _460
REMARK  199  A    between atoms: _460  and  _461
REMARK  200  A    between atoms: _463  and  _465
REMARK  201  A    between atoms: _465  and  _466
REMARK  202  A    between atoms: _468  and  _470
REMARK  203  A    between atoms: _470  and  _471
REMARK  204  A    between atoms: _473  and  _475
REMARK  205  A    between atoms: _475  and  _476
REMARK  206  A    between atoms: _478  and  _480
REMARK  207  A    between atoms: _480  and  _481
REMARK  208  A    between atoms: _483  and  _485
REMARK  209  A    between atoms: _485  and  _486
REMARK  210  A    between atoms: _485  and  _488
REMARK  211  A    between atoms: _490  and  _492
REMARK  212  A    between atoms: _492  and  _493
REMARK  213  A    between atoms: _492  and  _495
REMARK  214  A    between atoms: _495  and  _496
REMARK                            x       y       z     vdW  Elec       q    Type
REMARK                         _______ _______ _______ _____ _____    ______ ____
ROOT
ATOM      1  O   HOH     1      21.224  34.458  50.011  0.00  0.00    +0.000 OA
ENDROOT
TORSDOF 0
REMARK  Name = ../refined-set-2016/2oi2/2oi2_pocket.pdb
REMARK  214 active torsions:
REMARK  status: ('A' for Active; 'I' for Inactive)
REMARK    1  A    between atoms: _1  and  _3
REMARK    2  A    between atoms: _3  and  _4
REMARK    3  A    between atoms: _3  and  _6
REMARK    4  A    between atoms: _6  and  _7
REMARK    5  A    between atoms: _9  and  _11
REMARK    6  A    between atoms: _11  and  _12
REMARK    7  A    between atoms: _11  and  _14
REMARK    8  A    between atoms: _14  and  _15
REMARK    9  A    between atoms: _15  and  _16
REMARK   10  A    between atoms: _16  and  _17
REMARK   11  A    between atoms: _17  and  _18
REMARK   12  A    between atoms: _22  and  _24
REMARK   13  A    between atoms: _24  and  _25
REMARK   14  A    between atoms: _24  and  _27
REMARK   15  A    between atoms: _27  and  _28
REMARK   16  A    between atoms: _31  and  _33
REMARK   17  A    between atoms: _33  and  _34
REMARK   18  A    between atoms: _33  and  _36
REMARK   19  A    between atoms: _36  and  _37
REMARK   20  A    between atoms: _40  and  _42
REMARK   21  A    between atoms: _42  and  _43
REMARK   22  A    between atoms: _45  and  _47
REMARK   23  A    between atoms: _47  and  _48
REMARK   24  A    between atoms: _47  and  _50
REMARK   25  A    between atoms: _50  and  _51
REMARK   26  A    between atoms: _51  and  _52
REMARK   27  A    between atoms: _55  and  _57
REMARK   28  A    between atoms: _57  and  _58
REMARK   29  A    between atoms: _57  and  _60
REMARK   30  A    between atoms: _60  and  _61
REMARK   31  A    between atoms: _66  and  _68
REMARK   32  A    between atoms: _68  and  _69
REMARK   33  A    between atoms: _72  and  _74
REMARK   34  A    between atoms: _74  and  _75
REMARK   35  A    between atoms: _74  and  _77
REMARK   36  A    between atoms: _80  and  _82
REMARK   37  A    between atoms: _82  and  _83
REMARK   38  A    between atoms: _82  and  _85
REMARK   39  A    between atoms: _88  and  _90
REMARK   40  A    between atoms: _90  and  _91
REMARK   41  A    between atoms: _90  and  _93
REMARK   42  A    between atoms: _93  and  _94
REMARK   43  A    between atoms: _99  and  _100
REMARK   44  A    between atoms: _102  and  _104
REMARK   45  A    between atoms: _104  and  _105
REMARK   46  A    between atoms: _107  and  _109
REMARK   47  A    between atoms: _109  and  _110
REMARK   48  A    between atoms: _113  and  _115
REMARK   49  A    between atoms: _115  and  _116
REMARK   50  A    between atoms: _115  and  _118
REMARK   51  A    between atoms: _118  and  _119
REMARK   52  A    between atoms: _121  and  _123
REMARK   53  A    between atoms: _123  and  _124
REMARK   54  A    between atoms: _123  and  _126
REMARK   55  A    between atoms: _126  and  _127
REMARK   56  A    between atoms: _130  and  _132
REMARK   57  A    between atoms: _132  and  _133
REMARK   58  A    between atoms: _135  and  _137
REMARK   59  A    between atoms: _137  and  _138
REMARK   60  A    between atoms: _137  and  _140
REMARK   61  A    between atoms: _140  and  _141
REMARK   62  A    between atoms: _141  and  _142
REMARK   63  A    between atoms: _144  and  _146
REMARK   64  A    between atoms: _146  and  _147
REMARK   65  A    between atoms: _149  and  _151
REMARK   66  A    between atoms: _151  and  _152
REMARK   67  A    between atoms: _151  and  _154
REMARK   68  A    between atoms: _154  and  _155
REMARK   69  A    between atoms: _157  and  _159
REMARK   70  A    between atoms: _159  and  _160
REMARK   71  A    between atoms: _159  and  _162
REMARK   72  A    between atoms: _162  and  _163
REMARK   73  A    between atoms: _165  and  _167
REMARK   74  A    between atoms: _167  and  _168
REMARK   75  A    between atoms: _171  and  _173
REMARK   76  A    between atoms: _173  and  _174
REMARK   77  A    between atoms: _177  and  _179
REMARK   78  A    between atoms: _179  and  _180
REMARK   79  A    between atoms: _179  and  _182
REMARK   80  A    between atoms: _182  and  _183
REMARK   81  A    between atoms: _186  and  _188
REMARK   82  A    between atoms: _188  and  _189
REMARK   83  A    between atoms: _188  and  _191
REMARK   84  A    between atoms: _191  and  _192
REMARK   85  A    between atoms: _194  and  _196
REMARK   86  A    between atoms: _196  and  _197
REMARK   87  A    between atoms: _196  and  _199
REMARK   88  A    between atoms: _199  and  _200
REMARK   89  A    between atoms: _205  and  _207
REMARK   90  A    between atoms: _207  and  _208
REMARK   91  A    between atoms: _207  and  _210
REMARK   92  A    between atoms: _210  and  _211
REMARK   93  A    between atoms: _211  and  _212
REMARK   94  A    between atoms: _215  and  _217
REMARK   95  A    between atoms: _217  and  _218
REMARK   96  A    between atoms: _217  and  _220
REMARK   97  A    between atoms: _220  and  _221
REMARK   98  A    between atoms: _221  and  _222
REMARK   99  A    between atoms: _224  and  _226
REMARK  100  A    between atoms: _226  and  _227
REMARK  101  A    between atoms: _226  and  _229
REMARK  102  A    between atoms: _229  and  _230
REMARK  103  A    between atoms: _236  and  _237
REMARK  104  A    between atoms: _242  and  _244
REMARK  105  A    between atoms: _244  and  _245
REMARK  106  A    between atoms: _244  and  _247
REMARK  107  A    between atoms: _247  and  _248
REMARK  108  A    between atoms: _250  and  _252
REMARK  109  A    between atoms: _252  and  _253
REMARK  110  A    between atoms: _255  and  _257
REMARK  111  A    between atoms: _257  and  _258
REMARK  112  A    between atoms: _257  and  _260
REMARK  113  A    between atoms: _260  and  _261
REMARK  114  A    between atoms: _264  and  _266
REMARK  115  A    between atoms: _266  and  _267
REMARK  116  A    between atoms: _266  and  _269
REMARK  117  A    between atoms: _269  and  _270
REMARK  118  A    between atoms: _270  and  _272
REMARK  119  A    between atoms: _272  and  MG_501
REMARK  120  A    between atoms: _273  and  _275
REMARK  121  A    between atoms: _275  and  _276
REMARK  122  A    between atoms: _279  and  _281
REMARK  123  A    between atoms: _281  and  _282
REMARK  124  A    between atoms: _281  and  _284
REMARK  125  A    between atoms: _284  and  _285
REMARK  126  A    between atoms: _285  and  _286
REMARK  127  A    between atoms: _286  and  _287
REMARK  128  A    between atoms: _287  and  _288
REMARK  129  A    between atoms: _292  and  _294
REMARK  130  A    between atoms: _294  and  _295
REMARK  131  A    between atoms: _294  and  _297
REMARK  132  A    between atoms: _297  and  _298
REMARK  133  A    between atoms: _301  and  _303
REMARK  134  A    between atoms: _303  and  _304
REMARK  135  A    between atoms: _303  and  _306
REMARK  136  A    between atoms: _308  and  _310
REMARK  137  A    between atoms: _310  and  _311
REMARK  138  A    between atoms: _310  and  _313
REMARK  139  A    between atoms: _313  and  _314
REMARK  140  A    between atoms: _320  and  _322
REMARK  141  A    between atoms: _322  and  _323
REMARK  142  A    between atoms: _322  and  _325
REMARK  143  A    between atoms: _325  and  _326
REMARK  144  A    between atoms: _326  and  _327
REMARK  145  A    between atoms: _327  and  _328
REMARK  146  A    between atoms: _328  and  _329
REMARK  147  A    between atoms: _333  and  _335
REMARK  148  A    between atoms: _335  and  _336
REMARK  149  A    between atoms: _335  and  _338
REMARK  150  A    between atoms: _338  and  _339
REMARK  151  A    between atoms: _344  and  _345
REMARK  152  A    between atoms: _347  and  _349
REMARK  153  A    between atoms: _349  and  _350
REMARK  154  A    between atoms: _352  and  _354
REMARK  155  A    between atoms: _354  and  _355
REMARK  156  A    between atoms: _354  and  _357
REMARK  157  A    between atoms: _357  and  _358
REMARK  158  A    between atoms: _363  and  _365
REMARK  159  A    between atoms: _365  and  _366
REMARK  160  A    between atoms: _365  and  _368
REMARK  161  A    between atoms: _368  and  _369
REMARK  162  A    between atoms: _372  and  _374
REMARK  163  A    between atoms: _374  and  _375
REMARK  164  A    between atoms: _374  and  _377
REMARK  165  A    between atoms: _377  and  _378
REMARK  166  A    between atoms: _378  and  _379
REMARK  167  A    between atoms: _379  and  _380
REMARK  168  A    between atoms: _389  and  _391
REMARK  169  A    between atoms: _391  and  _392
REMARK  170  A    between atoms: _395  and  _397
REMARK  171  A    between atoms: _397  and  _398
REMARK  172  A    between atoms: _397  and  _400
REMARK  173  A    between atoms: _400  and  _401
REMARK  174  A    between atoms: _404  and  _406
REMARK  175  A    between atoms: _406  and  _407
REMARK  176  A    between atoms: _406  and  _409
REMARK  177  A    between atoms: _409  and  _410
REMARK  178  A    between atoms: _410  and  _411
REMARK  179  A    between atoms: _416  and  _418
REMARK  180  A    between atoms: _418  and  _419
REMARK  181  A    between atoms: _418  and  _421
REMARK  182  A    between atoms: _424  and  _426
REMARK  183  A    between atoms: _426  and  _427
REMARK  184  A    between atoms: _426  and  _429
REMARK  185  A    between atoms: _429  and  _430
REMARK  186  A    between atoms: _433  and  _435
REMARK  187  A    between atoms: _435  and  _436
REMARK  188  A    between atoms: _435  and  _438
REMARK  189  A    between atoms: _441  and  _443
REMARK  190  A    between atoms: _443  and  _444
REMARK  191  A    between atoms: _443  and  _446
REMARK  192  A    between atoms: _446  and  _447
REMARK  193  A    between atoms: _447  and  _448
REMARK  194  A    between atoms: _450  and  _452
REMARK  195  A    between atoms: _452  and  _453
REMARK  196  A    between atoms: _452  and  _455
REMARK  197  A    between atoms: _455  and  _456
REMARK  198  A    between atoms: _458  and  _460
REMARK  199  A    between atoms: _460  and  _461
REMARK  200  A    between atoms: _463  and  _465
REMARK  201  A    between atoms: _465  and  _466
REMARK  202  A    between atoms: _468  and  _470
REMARK  203  A    between atoms: _470  and  _471
REMARK  204  A    between atoms: _473  and  _475
REMARK  205  A    between atoms: _475  and  _476
REMARK  206  A    between atoms: _478  and  _480
REMARK  207  A    between atoms: _480  and  _481
REMARK  208  A    between atoms: _483  and  _485
REMARK  209  A    between atoms: _485  and  _486
REMARK  210  A    between atoms: _485  and  _488
REMARK  211  A    between atoms: _490  and  _492
REMARK  212  A    between atoms: _492  and  _493
REMARK  213  A    between atoms: _492  and  _495
REMARK  214  A    between atoms: _495  and  _496
REMARK                            x       y       z     vdW  Elec       q    Type
REMARK                         _______ _______ _______ _____ _____    ______ ____
ROOT
ATOM      1  O   HOH     1      16.693  24.005  48.348  0.00  0.00    +0.000 OA
ENDROOT
TORSDOF 0
