REMARK  Name = ../refined-set-2016/2wr8/2wr8_pocket.pdb
REMARK  252 active torsions:
REMARK  status: ('A' for Active; 'I' for Inactive)
REMARK    1  A    between atoms: _1  and  _3
REMARK    2  A    between atoms: _3  and  _4
REMARK    3  A    between atoms: _3  and  _6
REMARK    4  A    between atoms: _6  and  _7
REMARK    5  A    between atoms: _13  and  _15
REMARK    6  A    between atoms: _15  and  _16
REMARK    7  A    between atoms: _15  and  _18
REMARK    8  A    between atoms: _18  and  _19
REMARK    9  A    between atoms: _24  and  _25
REMARK   10  A    between atoms: _27  and  _29
REMARK   11  A    between atoms: _29  and  _30
REMARK   12  A    between atoms: _29  and  _32
REMARK   13  A    between atoms: _32  and  _33
REMARK   14  A    between atoms: _36  and  _38
REMARK   15  A    between atoms: _38  and  _39
REMARK   16  A    between atoms: _38  and  _41
REMARK   17  A    between atoms: _41  and  _42
REMARK   18  A    between atoms: _45  and  _47
REMARK   19  A    between atoms: _47  and  _48
REMARK   20  A    between atoms: _47  and  _50
REMARK   21  A    between atoms: _50  and  _51
REMARK   22  A    between atoms: _57  and  _59
REMARK   23  A    between atoms: _59  and  _60
REMARK   24  A    between atoms: _62  and  _64
REMARK   25  A    between atoms: _64  and  _65
REMARK   26  A    between atoms: _64  and  _67
REMARK   27  A    between atoms: _67  and  _68
REMARK   28  A    between atoms: _73  and  _75
REMARK   29  A    between atoms: _75  and  _76
REMARK   30  A    between atoms: _75  and  _78
REMARK   31  A    between atoms: _81  and  _83
REMARK   32  A    between atoms: _83  and  _84
REMARK   33  A    between atoms: _83  and  _86
REMARK   34  A    between atoms: _86  and  _87
REMARK   35  A    between atoms: _90  and  _92
REMARK   36  A    between atoms: _92  and  _93
REMARK   37  A    between atoms: _92  and  _95
REMARK   38  A    between atoms: _95  and  _96
REMARK   39  A    between atoms: _96  and  _97
REMARK   40  A    between atoms: _100  and  _102
REMARK   41  A    between atoms: _102  and  _103
REMARK   42  A    between atoms: _102  and  _105
REMARK   43  A    between atoms: _105  and  _106
REMARK   44  A    between atoms: _109  and  _111
REMARK   45  A    between atoms: _111  and  _112
REMARK   46  A    between atoms: _111  and  _114
REMARK   47  A    between atoms: _114  and  _115
REMARK   48  A    between atoms: _120  and  _121
REMARK   49  A    between atoms: _123  and  _125
REMARK   50  A    between atoms: _125  and  _126
REMARK   51  A    between atoms: _128  and  _130
REMARK   52  A    between atoms: _130  and  _131
REMARK   53  A    between atoms: _130  and  _133
REMARK   54  A    between atoms: _133  and  _134
REMARK   55  A    between atoms: _137  and  _139
REMARK   56  A    between atoms: _139  and  _140
REMARK   57  A    between atoms: _139  and  _142
REMARK   58  A    between atoms: _145  and  _147
REMARK   59  A    between atoms: _147  and  _148
REMARK   60  A    between atoms: _147  and  _150
REMARK   61  A    between atoms: _150  and  _151
REMARK   62  A    between atoms: _151  and  _152
REMARK   63  A    between atoms: _152  and  _153
REMARK   64  A    between atoms: _153  and  _154
REMARK   65  A    between atoms: _158  and  _160
REMARK   66  A    between atoms: _160  and  _161
REMARK   67  A    between atoms: _163  and  _165
REMARK   68  A    between atoms: _165  and  _166
REMARK   69  A    between atoms: _165  and  _168
REMARK   70  A    between atoms: _168  and  _169
REMARK   71  A    between atoms: _169  and  _170
REMARK   72  A    between atoms: _173  and  _175
REMARK   73  A    between atoms: _175  and  _176
REMARK   74  A    between atoms: _175  and  _178
REMARK   75  A    between atoms: _178  and  _179
REMARK   76  A    between atoms: _182  and  _184
REMARK   77  A    between atoms: _184  and  _185
REMARK   78  A    between atoms: _184  and  _187
REMARK   79  A    between atoms: _187  and  _188
REMARK   80  A    between atoms: _192  and  _193
REMARK   81  A    between atoms: _198  and  _200
REMARK   82  A    between atoms: _200  and  _201
REMARK   83  A    between atoms: _203  and  _205
REMARK   84  A    between atoms: _205  and  _206
REMARK   85  A    between atoms: _205  and  _208
REMARK   86  A    between atoms: _208  and  _209
REMARK   87  A    between atoms: _211  and  _213
REMARK   88  A    between atoms: _213  and  _214
REMARK   89  A    between atoms: _213  and  _216
REMARK   90  A    between atoms: _216  and  _217
REMARK   91  A    between atoms: _222  and  _224
REMARK   92  A    between atoms: _224  and  _225
REMARK   93  A    between atoms: _224  and  _227
REMARK   94  A    between atoms: _227  and  _228
REMARK   95  A    between atoms: _231  and  _233
REMARK   96  A    between atoms: _233  and  _234
REMARK   97  A    between atoms: _233  and  _236
REMARK   98  A    between atoms: _236  and  _237
REMARK   99  A    between atoms: _242  and  _243
REMARK  100  A    between atoms: _245  and  _247
REMARK  101  A    between atoms: _247  and  _248
REMARK  102  A    between atoms: _247  and  _250
REMARK  103  A    between atoms: _250  and  _251
REMARK  104  A    between atoms: _251  and  _252
REMARK  105  A    between atoms: _255  and  _257
REMARK  106  A    between atoms: _257  and  _258
REMARK  107  A    between atoms: _257  and  _260
REMARK  108  A    between atoms: _260  and  _261
REMARK  109  A    between atoms: _264  and  _266
REMARK  110  A    between atoms: _266  and  _267
REMARK  111  A    between atoms: _270  and  _272
REMARK  112  A    between atoms: _272  and  _273
REMARK  113  A    between atoms: _272  and  _275
REMARK  114  A    between atoms: _278  and  _280
REMARK  115  A    between atoms: _280  and  _281
REMARK  116  A    between atoms: _280  and  _283
REMARK  117  A    between atoms: _283  and  _284
REMARK  118  A    between atoms: _289  and  _291
REMARK  119  A    between atoms: _291  and  _292
REMARK  120  A    between atoms: _291  and  _294
REMARK  121  A    between atoms: _294  and  _295
REMARK  122  A    between atoms: _295  and  _296
REMARK  123  A    between atoms: _298  and  _300
REMARK  124  A    between atoms: _300  and  _301
REMARK  125  A    between atoms: _303  and  _305
REMARK  126  A    between atoms: _305  and  _306
REMARK  127  A    between atoms: _305  and  _308
REMARK  128  A    between atoms: _308  and  _309
REMARK  129  A    between atoms: _311  and  _313
REMARK  130  A    between atoms: _313  and  _314
REMARK  131  A    between atoms: _317  and  _319
REMARK  132  A    between atoms: _319  and  _320
REMARK  133  A    between atoms: _323  and  _325
REMARK  134  A    between atoms: _325  and  _326
REMARK  135  A    between atoms: _325  and  _328
REMARK  136  A    between atoms: _328  and  _329
REMARK  137  A    between atoms: _332  and  _334
REMARK  138  A    between atoms: _334  and  _335
REMARK  139  A    between atoms: _334  and  _337
REMARK  140  A    between atoms: _337  and  _338
REMARK  141  A    between atoms: _341  and  _343
REMARK  142  A    between atoms: _343  and  _344
REMARK  143  A    between atoms: _343  and  _346
REMARK  144  A    between atoms: _346  and  _347
REMARK  145  A    between atoms: _350  and  _352
REMARK  146  A    between atoms: _352  and  _353
REMARK  147  A    between atoms: _352  and  _355
REMARK  148  A    between atoms: _355  and  _356
REMARK  149  A    between atoms: _362  and  _364
REMARK  150  A    between atoms: _364  and  _365
REMARK  151  A    between atoms: _368  and  _369
REMARK  152  A    between atoms: _374  and  _376
REMARK  153  A    between atoms: _376  and  _377
REMARK  154  A    between atoms: _376  and  _379
REMARK  155  A    between atoms: _379  and  _380
REMARK  156  A    between atoms: _385  and  _386
REMARK  157  A    between atoms: _388  and  _390
REMARK  158  A    between atoms: _390  and  _391
REMARK  159  A    between atoms: _390  and  _393
REMARK  160  A    between atoms: _393  and  _394
REMARK  161  A    between atoms: _394  and  _395
REMARK  162  A    between atoms: _398  and  _400
REMARK  163  A    between atoms: _400  and  _401
REMARK  164  A    between atoms: _400  and  _403
REMARK  165  A    between atoms: _406  and  _408
REMARK  166  A    between atoms: _408  and  _409
REMARK  167  A    between atoms: _408  and  _411
REMARK  168  A    between atoms: _411  and  _412
REMARK  169  A    between atoms: _415  and  _417
REMARK  170  A    between atoms: _417  and  _418
REMARK  171  A    between atoms: _417  and  _420
REMARK  172  A    between atoms: _420  and  _421
REMARK  173  A    between atoms: _421  and  _422
REMARK  174  A    between atoms: _422  and  _423
REMARK  175  A    between atoms: _432  and  _434
REMARK  176  A    between atoms: _434  and  _435
REMARK  177  A    between atoms: _434  and  _437
REMARK  178  A    between atoms: _437  and  _438
REMARK  179  A    between atoms: _443  and  _445
REMARK  180  A    between atoms: _445  and  _446
REMARK  181  A    between atoms: _445  and  _448
REMARK  182  A    between atoms: _448  and  _449
REMARK  183  A    between atoms: _451  and  _453
REMARK  184  A    between atoms: _453  and  _454
REMARK  185  A    between atoms: _453  and  _456
REMARK  186  A    between atoms: _456  and  _457
REMARK  187  A    between atoms: _460  and  _462
REMARK  188  A    between atoms: _462  and  _463
REMARK  189  A    between atoms: _465  and  _467
REMARK  190  A    between atoms: _467  and  _468
REMARK  191  A    between atoms: _467  and  _470
REMARK  192  A    between atoms: _473  and  _475
REMARK  193  A    between atoms: _475  and  _476
REMARK  194  A    between atoms: _475  and  _478
REMARK  195  A    between atoms: _478  and  _479
REMARK  196  A    between atoms: _482  and  _484
REMARK  197  A    between atoms: _484  and  _485
REMARK  198  A    between atoms: _484  and  _487
REMARK  199  A    between atoms: _487  and  _488
REMARK  200  A    between atoms: _492  and  _493
REMARK  201  A    between atoms: _498  and  _500
REMARK  202  A    between atoms: _500  and  _501
REMARK  203  A    between atoms: _503  and  _505
REMARK  204  A    between atoms: _505  and  _506
REMARK  205  A    between atoms: _505  and  _508
REMARK  206  A    between atoms: _511  and  _513
REMARK  207  A    between atoms: _513  and  _514
REMARK  208  A    between atoms: _513  and  _516
REMARK  209  A    between atoms: _516  and  _517
REMARK  210  A    between atoms: _517  and  _518
REMARK  211  A    between atoms: _518  and  _519
REMARK  212  A    between atoms: _529  and  _530
REMARK  213  A    between atoms: _535  and  _537
REMARK  214  A    between atoms: _537  and  _538
REMARK  215  A    between atoms: _537  and  _540
REMARK  216  A    between atoms: _540  and  _541
REMARK  217  A    between atoms: _546  and  _548
REMARK  218  A    between atoms: _548  and  _549
REMARK  219  A    between atoms: _548  and  _551
REMARK  220  A    between atoms: _551  and  _552
REMARK  221  A    between atoms: _554  and  _556
REMARK  222  A    between atoms: _556  and  _557
REMARK  223  A    between atoms: _556  and  _559
REMARK  224  A    between atoms: _559  and  _560
REMARK  225  A    between atoms: _562  and  _564
REMARK  226  A    between atoms: _564  and  _565
REMARK  227  A    between atoms: _564  and  _567
REMARK  228  A    between atoms: _567  and  _568
REMARK  229  A    between atoms: _571  and  _573
REMARK  230  A    between atoms: _573  and  _574
REMARK  231  A    between atoms: _573  and  _576
REMARK  232  A    between atoms: _576  and  _577
REMARK  233  A    between atoms: _583  and  _585
REMARK  234  A    between atoms: _585  and  _586
REMARK  235  A    between atoms: _585  and  _588
REMARK  236  A    between atoms: _588  and  _589
REMARK  237  A    between atoms: _594  and  _596
REMARK  238  A    between atoms: _596  and  _597
REMARK  239  A    between atoms: _599  and  _601
REMARK  240  A    between atoms: _601  and  _602
REMARK  241  A    between atoms: _601  and  _604
REMARK  242  A    between atoms: _604  and  _605
REMARK  243  A    between atoms: _605  and  _606
REMARK  244  A    between atoms: _606  and  _607
REMARK  245  A    between atoms: _616  and  _618
REMARK  246  A    between atoms: _618  and  _619
REMARK  247  A    between atoms: _618  and  _621
REMARK  248  A    between atoms: _621  and  _622
REMARK  249  A    between atoms: _625  and  _627
REMARK  250  A    between atoms: _627  and  _628
REMARK  251  A    between atoms: _627  and  _630
REMARK  252  A    between atoms: _630  and  _631
REMARK                            x       y       z     vdW  Elec       q    Type
REMARK                         _______ _______ _______ _____ _____    ______ ____
ROOT
ATOM      1  CB  PHE A   1      17.116 -29.902   4.934  0.00  0.00    +0.051 C 
ENDROOT
BRANCH   1   2
ATOM      2  CG  PHE A   1      17.473 -31.346   4.941  0.00  0.00    -0.020 A 
ATOM      3  CD2 PHE A   1      18.808 -31.763   4.880  0.00  0.00    -0.004 A 
ATOM      4  CE2 PHE A   1      19.117 -33.125   4.831  0.00  0.00    -0.000 A 
ATOM      5  CZ  PHE A   1      18.086 -34.076   4.819  0.00  0.00    -0.000 A 
ATOM      6  CE1 PHE A   1      16.759 -33.664   4.853  0.00  0.00    -0.000 A 
ATOM      7  CD1 PHE A   1      16.458 -32.310   4.869  0.00  0.00    -0.004 A 
ENDBRANCH   1   2
BRANCH   1   8
ATOM      8  CA  PHE A   1      17.011 -29.306   3.538  0.00  0.00    +0.137 C 
BRANCH   8   9
ATOM      9  N   PHE A   1      16.334 -27.980   3.552  0.00  0.00    -0.239 NA
ATOM     10  H   PHE A   1      15.949 -27.634   4.454  0.00  0.00    +0.142 HD
ENDBRANCH   8   9
BRANCH   8  11
ATOM     11  C   PHE A   1      16.288 -30.235   2.596  0.00  0.00    +0.224 C 
ATOM     12  O   PHE A   1      16.873 -30.855   1.745  0.00  0.00    -0.287 OA
ENDBRANCH   8  11
ENDBRANCH   1   8
TORSDOF 4
REMARK  Name = ../refined-set-2016/2wr8/2wr8_pocket.pdb
REMARK  252 active torsions:
REMARK  status: ('A' for Active; 'I' for Inactive)
REMARK    1  A    between atoms: _1  and  _3
REMARK    2  A    between atoms: _3  and  _4
REMARK    3  A    between atoms: _3  and  _6
REMARK    4  A    between atoms: _6  and  _7
REMARK    5  A    between atoms: _13  and  _15
REMARK    6  A    between atoms: _15  and  _16
REMARK    7  A    between atoms: _15  and  _18
REMARK    8  A    between atoms: _18  and  _19
REMARK    9  A    between atoms: _24  and  _25
REMARK   10  A    between atoms: _27  and  _29
REMARK   11  A    between atoms: _29  and  _30
REMARK   12  A    between atoms: _29  and  _32
REMARK   13  A    between atoms: _32  and  _33
REMARK   14  A    between atoms: _36  and  _38
REMARK   15  A    between atoms: _38  and  _39
REMARK   16  A    between atoms: _38  and  _41
REMARK   17  A    between atoms: _41  and  _42
REMARK   18  A    between atoms: _45  and  _47
REMARK   19  A    between atoms: _47  and  _48
REMARK   20  A    between atoms: _47  and  _50
REMARK   21  A    between atoms: _50  and  _51
REMARK   22  A    between atoms: _57  and  _59
REMARK   23  A    between atoms: _59  and  _60
REMARK   24  A    between atoms: _62  and  _64
REMARK   25  A    between atoms: _64  and  _65
REMARK   26  A    between atoms: _64  and  _67
REMARK   27  A    between atoms: _67  and  _68
REMARK   28  A    between atoms: _73  and  _75
REMARK   29  A    between atoms: _75  and  _76
REMARK   30  A    between atoms: _75  and  _78
REMARK   31  A    between atoms: _81  and  _83
REMARK   32  A    between atoms: _83  and  _84
REMARK   33  A    between atoms: _83  and  _86
REMARK   34  A    between atoms: _86  and  _87
REMARK   35  A    between atoms: _90  and  _92
REMARK   36  A    between atoms: _92  and  _93
REMARK   37  A    between atoms: _92  and  _95
REMARK   38  A    between atoms: _95  and  _96
REMARK   39  A    between atoms: _96  and  _97
REMARK   40  A    between atoms: _100  and  _102
REMARK   41  A    between atoms: _102  and  _103
REMARK   42  A    between atoms: _102  and  _105
REMARK   43  A    between atoms: _105  and  _106
REMARK   44  A    between atoms: _109  and  _111
REMARK   45  A    between atoms: _111  and  _112
REMARK   46  A    between atoms: _111  and  _114
REMARK   47  A    between atoms: _114  and  _115
REMARK   48  A    between atoms: _120  and  _121
REMARK   49  A    between atoms: _123  and  _125
REMARK   50  A    between atoms: _125  and  _126
REMARK   51  A    between atoms: _128  and  _130
REMARK   52  A    between atoms: _130  and  _131
REMARK   53  A    between atoms: _130  and  _133
REMARK   54  A    between atoms: _133  and  _134
REMARK   55  A    between atoms: _137  and  _139
REMARK   56  A    between atoms: _139  and  _140
REMARK   57  A    between atoms: _139  and  _142
REMARK   58  A    between atoms: _145  and  _147
REMARK   59  A    between atoms: _147  and  _148
REMARK   60  A    between atoms: _147  and  _150
REMARK   61  A    between atoms: _150  and  _151
REMARK   62  A    between atoms: _151  and  _152
REMARK   63  A    between atoms: _152  and  _153
REMARK   64  A    between atoms: _153  and  _154
REMARK   65  A    between atoms: _158  and  _160
REMARK   66  A    between atoms: _160  and  _161
REMARK   67  A    between atoms: _163  and  _165
REMARK   68  A    between atoms: _165  and  _166
REMARK   69  A    between atoms: _165  and  _168
REMARK   70  A    between atoms: _168  and  _169
REMARK   71  A    between atoms: _169  and  _170
REMARK   72  A    between atoms: _173  and  _175
REMARK   73  A    between atoms: _175  and  _176
REMARK   74  A    between atoms: _175  and  _178
REMARK   75  A    between atoms: _178  and  _179
REMARK   76  A    between atoms: _182  and  _184
REMARK   77  A    between atoms: _184  and  _185
REMARK   78  A    between atoms: _184  and  _187
REMARK   79  A    between atoms: _187  and  _188
REMARK   80  A    between atoms: _192  and  _193
REMARK   81  A    between atoms: _198  and  _200
REMARK   82  A    between atoms: _200  and  _201
REMARK   83  A    between atoms: _203  and  _205
REMARK   84  A    between atoms: _205  and  _206
REMARK   85  A    between atoms: _205  and  _208
REMARK   86  A    between atoms: _208  and  _209
REMARK   87  A    between atoms: _211  and  _213
REMARK   88  A    between atoms: _213  and  _214
REMARK   89  A    between atoms: _213  and  _216
REMARK   90  A    between atoms: _216  and  _217
REMARK   91  A    between atoms: _222  and  _224
REMARK   92  A    between atoms: _224  and  _225
REMARK   93  A    between atoms: _224  and  _227
REMARK   94  A    between atoms: _227  and  _228
REMARK   95  A    between atoms: _231  and  _233
REMARK   96  A    between atoms: _233  and  _234
REMARK   97  A    between atoms: _233  and  _236
REMARK   98  A    between atoms: _236  and  _237
REMARK   99  A    between atoms: _242  and  _243
REMARK  100  A    between atoms: _245  and  _247
REMARK  101  A    between atoms: _247  and  _248
REMARK  102  A    between atoms: _247  and  _250
REMARK  103  A    between atoms: _250  and  _251
REMARK  104  A    between atoms: _251  and  _252
REMARK  105  A    between atoms: _255  and  _257
REMARK  106  A    between atoms: _257  and  _258
REMARK  107  A    between atoms: _257  and  _260
REMARK  108  A    between atoms: _260  and  _261
REMARK  109  A    between atoms: _264  and  _266
REMARK  110  A    between atoms: _266  and  _267
REMARK  111  A    between atoms: _270  and  _272
REMARK  112  A    between atoms: _272  and  _273
REMARK  113  A    between atoms: _272  and  _275
REMARK  114  A    between atoms: _278  and  _280
REMARK  115  A    between atoms: _280  and  _281
REMARK  116  A    between atoms: _280  and  _283
REMARK  117  A    between atoms: _283  and  _284
REMARK  118  A    between atoms: _289  and  _291
REMARK  119  A    between atoms: _291  and  _292
REMARK  120  A    between atoms: _291  and  _294
REMARK  121  A    between atoms: _294  and  _295
REMARK  122  A    between atoms: _295  and  _296
REMARK  123  A    between atoms: _298  and  _300
REMARK  124  A    between atoms: _300  and  _301
REMARK  125  A    between atoms: _303  and  _305
REMARK  126  A    between atoms: _305  and  _306
REMARK  127  A    between atoms: _305  and  _308
REMARK  128  A    between atoms: _308  and  _309
REMARK  129  A    between atoms: _311  and  _313
REMARK  130  A    between atoms: _313  and  _314
REMARK  131  A    between atoms: _317  and  _319
REMARK  132  A    between atoms: _319  and  _320
REMARK  133  A    between atoms: _323  and  _325
REMARK  134  A    between atoms: _325  and  _326
REMARK  135  A    between atoms: _325  and  _328
REMARK  136  A    between atoms: _328  and  _329
REMARK  137  A    between atoms: _332  and  _334
REMARK  138  A    between atoms: _334  and  _335
REMARK  139  A    between atoms: _334  and  _337
REMARK  140  A    between atoms: _337  and  _338
REMARK  141  A    between atoms: _341  and  _343
REMARK  142  A    between atoms: _343  and  _344
REMARK  143  A    between atoms: _343  and  _346
REMARK  144  A    between atoms: _346  and  _347
REMARK  145  A    between atoms: _350  and  _352
REMARK  146  A    between atoms: _352  and  _353
REMARK  147  A    between atoms: _352  and  _355
REMARK  148  A    between atoms: _355  and  _356
REMARK  149  A    between atoms: _362  and  _364
REMARK  150  A    between atoms: _364  and  _365
REMARK  151  A    between atoms: _368  and  _369
REMARK  152  A    between atoms: _374  and  _376
REMARK  153  A    between atoms: _376  and  _377
REMARK  154  A    between atoms: _376  and  _379
REMARK  155  A    between atoms: _379  and  _380
REMARK  156  A    between atoms: _385  and  _386
REMARK  157  A    between atoms: _388  and  _390
REMARK  158  A    between atoms: _390  and  _391
REMARK  159  A    between atoms: _390  and  _393
REMARK  160  A    between atoms: _393  and  _394
REMARK  161  A    between atoms: _394  and  _395
REMARK  162  A    between atoms: _398  and  _400
REMARK  163  A    between atoms: _400  and  _401
REMARK  164  A    between atoms: _400  and  _403
REMARK  165  A    between atoms: _406  and  _408
REMARK  166  A    between atoms: _408  and  _409
REMARK  167  A    between atoms: _408  and  _411
REMARK  168  A    between atoms: _411  and  _412
REMARK  169  A    between atoms: _415  and  _417
REMARK  170  A    between atoms: _417  and  _418
REMARK  171  A    between atoms: _417  and  _420
REMARK  172  A    between atoms: _420  and  _421
REMARK  173  A    between atoms: _421  and  _422
REMARK  174  A    between atoms: _422  and  _423
REMARK  175  A    between atoms: _432  and  _434
REMARK  176  A    between atoms: _434  and  _435
REMARK  177  A    between atoms: _434  and  _437
REMARK  178  A    between atoms: _437  and  _438
REMARK  179  A    between atoms: _443  and  _445
REMARK  180  A    between atoms: _445  and  _446
REMARK  181  A    between atoms: _445  and  _448
REMARK  182  A    between atoms: _448  and  _449
REMARK  183  A    between atoms: _451  and  _453
REMARK  184  A    between atoms: _453  and  _454
REMARK  185  A    between atoms: _453  and  _456
REMARK  186  A    between atoms: _456  and  _457
REMARK  187  A    between atoms: _460  and  _462
REMARK  188  A    between atoms: _462  and  _463
REMARK  189  A    between atoms: _465  and  _467
REMARK  190  A    between atoms: _467  and  _468
REMARK  191  A    between atoms: _467  and  _470
REMARK  192  A    between atoms: _473  and  _475
REMARK  193  A    between atoms: _475  and  _476
REMARK  194  A    between atoms: _475  and  _478
REMARK  195  A    between atoms: _478  and  _479
REMARK  196  A    between atoms: _482  and  _484
REMARK  197  A    between atoms: _484  and  _485
REMARK  198  A    between atoms: _484  and  _487
REMARK  199  A    between atoms: _487  and  _488
REMARK  200  A    between atoms: _492  and  _493
REMARK  201  A    between atoms: _498  and  _500
REMARK  202  A    between atoms: _500  and  _501
REMARK  203  A    between atoms: _503  and  _505
REMARK  204  A    between atoms: _505  and  _506
REMARK  205  A    between atoms: _505  and  _508
REMARK  206  A    between atoms: _511  and  _513
REMARK  207  A    between atoms: _513  and  _514
REMARK  208  A    between atoms: _513  and  _516
REMARK  209  A    between atoms: _516  and  _517
REMARK  210  A    between atoms: _517  and  _518
REMARK  211  A    between atoms: _518  and  _519
REMARK  212  A    between atoms: _529  and  _530
REMARK  213  A    between atoms: _535  and  _537
REMARK  214  A    between atoms: _537  and  _538
REMARK  215  A    between atoms: _537  and  _540
REMARK  216  A    between atoms: _540  and  _541
REMARK  217  A    between atoms: _546  and  _548
REMARK  218  A    between atoms: _548  and  _549
REMARK  219  A    between atoms: _548  and  _551
REMARK  220  A    between atoms: _551  and  _552
REMARK  221  A    between atoms: _554  and  _556
REMARK  222  A    between atoms: _556  and  _557
REMARK  223  A    between atoms: _556  and  _559
REMARK  224  A    between atoms: _559  and  _560
REMARK  225  A    between atoms: _562  and  _564
REMARK  226  A    between atoms: _564  and  _565
REMARK  227  A    between atoms: _564  and  _567
REMARK  228  A    between atoms: _567  and  _568
REMARK  229  A    between atoms: _571  and  _573
REMARK  230  A    between atoms: _573  and  _574
REMARK  231  A    between atoms: _573  and  _576
REMARK  232  A    between atoms: _576  and  _577
REMARK  233  A    between atoms: _583  and  _585
REMARK  234  A    between atoms: _585  and  _586
REMARK  235  A    between atoms: _585  and  _588
REMARK  236  A    between atoms: _588  and  _589
REMARK  237  A    between atoms: _594  and  _596
REMARK  238  A    between atoms: _596  and  _597
REMARK  239  A    between atoms: _599  and  _601
REMARK  240  A    between atoms: _601  and  _602
REMARK  241  A    between atoms: _601  and  _604
REMARK  242  A    between atoms: _604  and  _605
REMARK  243  A    between atoms: _605  and  _606
REMARK  244  A    between atoms: _606  and  _607
REMARK  245  A    between atoms: _616  and  _618
REMARK  246  A    between atoms: _618  and  _619
REMARK  247  A    between atoms: _618  and  _621
REMARK  248  A    between atoms: _621  and  _622
REMARK  249  A    between atoms: _625  and  _627
REMARK  250  A    between atoms: _627  and  _628
REMARK  251  A    between atoms: _627  and  _630
REMARK  252  A    between atoms: _630  and  _631
REMARK                            x       y       z     vdW  Elec       q    Type
REMARK                         _______ _______ _______ _____ _____    ______ ____
ROOT
ATOM      1  CG  TYR A   1      15.096 -34.135   7.777  0.00  0.00    -0.020 A 
ATOM      2  CD2 TYR A   1      13.733 -33.929   7.717  0.00  0.00    -0.001 A 
ATOM      3  CE2 TYR A   1      12.894 -34.884   7.269  0.00  0.00    +0.036 A 
ATOM      4  CZ  TYR A   1      13.390 -36.132   6.903  0.00  0.00    +0.134 A 
ATOM      5  CE1 TYR A   1      14.722 -36.384   6.916  0.00  0.00    +0.036 A 
ATOM      6  CD1 TYR A   1      15.594 -35.361   7.366  0.00  0.00    -0.001 A 
ENDROOT
BRANCH   4   7
ATOM      7  OH  TYR A   1      12.504 -37.086   6.482  0.00  0.00    -0.506 OA
ATOM      8  HH  TYR A   1      11.583 -36.728   6.541  0.00  0.00    +0.292 HD
ENDBRANCH   4   7
BRANCH   1   9
ATOM      9  CB  TYR A   1      16.024 -33.039   8.249  0.00  0.00    +0.051 C 
BRANCH   9  10
ATOM     10  CA  TYR A   1      15.845 -32.545   9.712  0.00  0.00    +0.137 C 
BRANCH  10  11
ATOM     11  N   TYR A   1      16.964 -31.702  10.132  0.00  0.00    -0.239 NA
ATOM     12  H   TYR A   1      17.662 -32.089  10.799  0.00  0.00    +0.142 HD
ENDBRANCH  10  11
BRANCH  10  13
ATOM     13  C   TYR A   1      15.672 -33.681  10.732  0.00  0.00    +0.224 C 
ATOM     14  O   TYR A   1      16.651 -34.215  11.243  0.00  0.00    -0.287 OA
ENDBRANCH  10  13
ENDBRANCH   9  10
ENDBRANCH   1   9
TORSDOF 5
REMARK  Name = ../refined-set-2016/2wr8/2wr8_pocket.pdb
REMARK  252 active torsions:
REMARK  status: ('A' for Active; 'I' for Inactive)
REMARK    1  A    between atoms: _1  and  _3
REMARK    2  A    between atoms: _3  and  _4
REMARK    3  A    between atoms: _3  and  _6
REMARK    4  A    between atoms: _6  and  _7
REMARK    5  A    between atoms: _13  and  _15
REMARK    6  A    between atoms: _15  and  _16
REMARK    7  A    between atoms: _15  and  _18
REMARK    8  A    between atoms: _18  and  _19
REMARK    9  A    between atoms: _24  and  _25
REMARK   10  A    between atoms: _27  and  _29
REMARK   11  A    between atoms: _29  and  _30
REMARK   12  A    between atoms: _29  and  _32
REMARK   13  A    between atoms: _32  and  _33
REMARK   14  A    between atoms: _36  and  _38
REMARK   15  A    between atoms: _38  and  _39
REMARK   16  A    between atoms: _38  and  _41
REMARK   17  A    between atoms: _41  and  _42
REMARK   18  A    between atoms: _45  and  _47
REMARK   19  A    between atoms: _47  and  _48
REMARK   20  A    between atoms: _47  and  _50
REMARK   21  A    between atoms: _50  and  _51
REMARK   22  A    between atoms: _57  and  _59
REMARK   23  A    between atoms: _59  and  _60
REMARK   24  A    between atoms: _62  and  _64
REMARK   25  A    between atoms: _64  and  _65
REMARK   26  A    between atoms: _64  and  _67
REMARK   27  A    between atoms: _67  and  _68
REMARK   28  A    between atoms: _73  and  _75
REMARK   29  A    between atoms: _75  and  _76
REMARK   30  A    between atoms: _75  and  _78
REMARK   31  A    between atoms: _81  and  _83
REMARK   32  A    between atoms: _83  and  _84
REMARK   33  A    between atoms: _83  and  _86
REMARK   34  A    between atoms: _86  and  _87
REMARK   35  A    between atoms: _90  and  _92
REMARK   36  A    between atoms: _92  and  _93
REMARK   37  A    between atoms: _92  and  _95
REMARK   38  A    between atoms: _95  and  _96
REMARK   39  A    between atoms: _96  and  _97
REMARK   40  A    between atoms: _100  and  _102
REMARK   41  A    between atoms: _102  and  _103
REMARK   42  A    between atoms: _102  and  _105
REMARK   43  A    between atoms: _105  and  _106
REMARK   44  A    between atoms: _109  and  _111
REMARK   45  A    between atoms: _111  and  _112
REMARK   46  A    between atoms: _111  and  _114
REMARK   47  A    between atoms: _114  and  _115
REMARK   48  A    between atoms: _120  and  _121
REMARK   49  A    between atoms: _123  and  _125
REMARK   50  A    between atoms: _125  and  _126
REMARK   51  A    between atoms: _128  and  _130
REMARK   52  A    between atoms: _130  and  _131
REMARK   53  A    between atoms: _130  and  _133
REMARK   54  A    between atoms: _133  and  _134
REMARK   55  A    between atoms: _137  and  _139
REMARK   56  A    between atoms: _139  and  _140
REMARK   57  A    between atoms: _139  and  _142
REMARK   58  A    between atoms: _145  and  _147
REMARK   59  A    between atoms: _147  and  _148
REMARK   60  A    between atoms: _147  and  _150
REMARK   61  A    between atoms: _150  and  _151
REMARK   62  A    between atoms: _151  and  _152
REMARK   63  A    between atoms: _152  and  _153
REMARK   64  A    between atoms: _153  and  _154
REMARK   65  A    between atoms: _158  and  _160
REMARK   66  A    between atoms: _160  and  _161
REMARK   67  A    between atoms: _163  and  _165
REMARK   68  A    between atoms: _165  and  _166
REMARK   69  A    between atoms: _165  and  _168
REMARK   70  A    between atoms: _168  and  _169
REMARK   71  A    between atoms: _169  and  _170
REMARK   72  A    between atoms: _173  and  _175
REMARK   73  A    between atoms: _175  and  _176
REMARK   74  A    between atoms: _175  and  _178
REMARK   75  A    between atoms: _178  and  _179
REMARK   76  A    between atoms: _182  and  _184
REMARK   77  A    between atoms: _184  and  _185
REMARK   78  A    between atoms: _184  and  _187
REMARK   79  A    between atoms: _187  and  _188
REMARK   80  A    between atoms: _192  and  _193
REMARK   81  A    between atoms: _198  and  _200
REMARK   82  A    between atoms: _200  and  _201
REMARK   83  A    between atoms: _203  and  _205
REMARK   84  A    between atoms: _205  and  _206
REMARK   85  A    between atoms: _205  and  _208
REMARK   86  A    between atoms: _208  and  _209
REMARK   87  A    between atoms: _211  and  _213
REMARK   88  A    between atoms: _213  and  _214
REMARK   89  A    between atoms: _213  and  _216
REMARK   90  A    between atoms: _216  and  _217
REMARK   91  A    between atoms: _222  and  _224
REMARK   92  A    between atoms: _224  and  _225
REMARK   93  A    between atoms: _224  and  _227
REMARK   94  A    between atoms: _227  and  _228
REMARK   95  A    between atoms: _231  and  _233
REMARK   96  A    between atoms: _233  and  _234
REMARK   97  A    between atoms: _233  and  _236
REMARK   98  A    between atoms: _236  and  _237
REMARK   99  A    between atoms: _242  and  _243
REMARK  100  A    between atoms: _245  and  _247
REMARK  101  A    between atoms: _247  and  _248
REMARK  102  A    between atoms: _247  and  _250
REMARK  103  A    between atoms: _250  and  _251
REMARK  104  A    between atoms: _251  and  _252
REMARK  105  A    between atoms: _255  and  _257
REMARK  106  A    between atoms: _257  and  _258
REMARK  107  A    between atoms: _257  and  _260
REMARK  108  A    between atoms: _260  and  _261
REMARK  109  A    between atoms: _264  and  _266
REMARK  110  A    between atoms: _266  and  _267
REMARK  111  A    between atoms: _270  and  _272
REMARK  112  A    between atoms: _272  and  _273
REMARK  113  A    between atoms: _272  and  _275
REMARK  114  A    between atoms: _278  and  _280
REMARK  115  A    between atoms: _280  and  _281
REMARK  116  A    between atoms: _280  and  _283
REMARK  117  A    between atoms: _283  and  _284
REMARK  118  A    between atoms: _289  and  _291
REMARK  119  A    between atoms: _291  and  _292
REMARK  120  A    between atoms: _291  and  _294
REMARK  121  A    between atoms: _294  and  _295
REMARK  122  A    between atoms: _295  and  _296
REMARK  123  A    between atoms: _298  and  _300
REMARK  124  A    between atoms: _300  and  _301
REMARK  125  A    between atoms: _303  and  _305
REMARK  126  A    between atoms: _305  and  _306
REMARK  127  A    between atoms: _305  and  _308
REMARK  128  A    between atoms: _308  and  _309
REMARK  129  A    between atoms: _311  and  _313
REMARK  130  A    between atoms: _313  and  _314
REMARK  131  A    between atoms: _317  and  _319
REMARK  132  A    between atoms: _319  and  _320
REMARK  133  A    between atoms: _323  and  _325
REMARK  134  A    between atoms: _325  and  _326
REMARK  135  A    between atoms: _325  and  _328
REMARK  136  A    between atoms: _328  and  _329
REMARK  137  A    between atoms: _332  and  _334
REMARK  138  A    between atoms: _334  and  _335
REMARK  139  A    between atoms: _334  and  _337
REMARK  140  A    between atoms: _337  and  _338
REMARK  141  A    between atoms: _341  and  _343
REMARK  142  A    between atoms: _343  and  _344
REMARK  143  A    between atoms: _343  and  _346
REMARK  144  A    between atoms: _346  and  _347
REMARK  145  A    between atoms: _350  and  _352
REMARK  146  A    between atoms: _352  and  _353
REMARK  147  A    between atoms: _352  and  _355
REMARK  148  A    between atoms: _355  and  _356
REMARK  149  A    between atoms: _362  and  _364
REMARK  150  A    between atoms: _364  and  _365
REMARK  151  A    between atoms: _368  and  _369
REMARK  152  A    between atoms: _374  and  _376
REMARK  153  A    between atoms: _376  and  _377
REMARK  154  A    between atoms: _376  and  _379
REMARK  155  A    between atoms: _379  and  _380
REMARK  156  A    between atoms: _385  and  _386
REMARK  157  A    between atoms: _388  and  _390
REMARK  158  A    between atoms: _390  and  _391
REMARK  159  A    between atoms: _390  and  _393
REMARK  160  A    between atoms: _393  and  _394
REMARK  161  A    between atoms: _394  and  _395
REMARK  162  A    between atoms: _398  and  _400
REMARK  163  A    between atoms: _400  and  _401
REMARK  164  A    between atoms: _400  and  _403
REMARK  165  A    between atoms: _406  and  _408
REMARK  166  A    between atoms: _408  and  _409
REMARK  167  A    between atoms: _408  and  _411
REMARK  168  A    between atoms: _411  and  _412
REMARK  169  A    between atoms: _415  and  _417
REMARK  170  A    between atoms: _417  and  _418
REMARK  171  A    between atoms: _417  and  _420
REMARK  172  A    between atoms: _420  and  _421
REMARK  173  A    between atoms: _421  and  _422
REMARK  174  A    between atoms: _422  and  _423
REMARK  175  A    between atoms: _432  and  _434
REMARK  176  A    between atoms: _434  and  _435
REMARK  177  A    between atoms: _434  and  _437
REMARK  178  A    between atoms: _437  and  _438
REMARK  179  A    between atoms: _443  and  _445
REMARK  180  A    between atoms: _445  and  _446
REMARK  181  A    between atoms: _445  and  _448
REMARK  182  A    between atoms: _448  and  _449
REMARK  183  A    between atoms: _451  and  _453
REMARK  184  A    between atoms: _453  and  _454
REMARK  185  A    between atoms: _453  and  _456
REMARK  186  A    between atoms: _456  and  _457
REMARK  187  A    between atoms: _460  and  _462
REMARK  188  A    between atoms: _462  and  _463
REMARK  189  A    between atoms: _465  and  _467
REMARK  190  A    between atoms: _467  and  _468
REMARK  191  A    between atoms: _467  and  _470
REMARK  192  A    between atoms: _473  and  _475
REMARK  193  A    between atoms: _475  and  _476
REMARK  194  A    between atoms: _475  and  _478
REMARK  195  A    between atoms: _478  and  _479
REMARK  196  A    between atoms: _482  and  _484
REMARK  197  A    between atoms: _484  and  _485
REMARK  198  A    between atoms: _484  and  _487
REMARK  199  A    between atoms: _487  and  _488
REMARK  200  A    between atoms: _492  and  _493
REMARK  201  A    between atoms: _498  and  _500
REMARK  202  A    between atoms: _500  and  _501
REMARK  203  A    between atoms: _503  and  _505
REMARK  204  A    between atoms: _505  and  _506
REMARK  205  A    between atoms: _505  and  _508
REMARK  206  A    between atoms: _511  and  _513
REMARK  207  A    between atoms: _513  and  _514
REMARK  208  A    between atoms: _513  and  _516
REMARK  209  A    between atoms: _516  and  _517
REMARK  210  A    between atoms: _517  and  _518
REMARK  211  A    between atoms: _518  and  _519
REMARK  212  A    between atoms: _529  and  _530
REMARK  213  A    between atoms: _535  and  _537
REMARK  214  A    between atoms: _537  and  _538
REMARK  215  A    between atoms: _537  and  _540
REMARK  216  A    between atoms: _540  and  _541
REMARK  217  A    between atoms: _546  and  _548
REMARK  218  A    between atoms: _548  and  _549
REMARK  219  A    between atoms: _548  and  _551
REMARK  220  A    between atoms: _551  and  _552
REMARK  221  A    between atoms: _554  and  _556
REMARK  222  A    between atoms: _556  and  _557
REMARK  223  A    between atoms: _556  and  _559
REMARK  224  A    between atoms: _559  and  _560
REMARK  225  A    between atoms: _562  and  _564
REMARK  226  A    between atoms: _564  and  _565
REMARK  227  A    between atoms: _564  and  _567
REMARK  228  A    between atoms: _567  and  _568
REMARK  229  A    between atoms: _571  and  _573
REMARK  230  A    between atoms: _573  and  _574
REMARK  231  A    between atoms: _573  and  _576
REMARK  232  A    between atoms: _576  and  _577
REMARK  233  A    between atoms: _583  and  _585
REMARK  234  A    between atoms: _585  and  _586
REMARK  235  A    between atoms: _585  and  _588
REMARK  236  A    between atoms: _588  and  _589
REMARK  237  A    between atoms: _594  and  _596
REMARK  238  A    between atoms: _596  and  _597
REMARK  239  A    between atoms: _599  and  _601
REMARK  240  A    between atoms: _601  and  _602
REMARK  241  A    between atoms: _601  and  _604
REMARK  242  A    between atoms: _604  and  _605
REMARK  243  A    between atoms: _605  and  _606
REMARK  244  A    between atoms: _606  and  _607
REMARK  245  A    between atoms: _616  and  _618
REMARK  246  A    between atoms: _618  and  _619
REMARK  247  A    between atoms: _618  and  _621
REMARK  248  A    between atoms: _621  and  _622
REMARK  249  A    between atoms: _625  and  _627
REMARK  250  A    between atoms: _627  and  _628
REMARK  251  A    between atoms: _627  and  _630
REMARK  252  A    between atoms: _630  and  _631
REMARK                            x       y       z     vdW  Elec       q    Type
REMARK                         _______ _______ _______ _____ _____    ______ ____
ROOT
ATOM      1  C   PHE A   3      12.059 -42.049  13.581  0.00  0.00    +0.241 C 
ATOM      2  O   PHE A   3      12.388 -42.752  14.508  0.00  0.00    -0.273 OA
ATOM      3  N   GLY A   4      12.229 -40.730  13.566  0.00  0.00    -0.295 N 
ATOM      4  H   GLY A   4      11.842 -40.179  12.773  0.00  0.00    +0.150 HD
ENDROOT
BRANCH   3   5
ATOM      5  CA  GLY A   4      12.942 -40.037  14.630  0.00  0.00    +0.176 C 
BRANCH   5   6
ATOM      6  C   GLY A   4      14.441 -40.040  14.393  0.00  0.00    +0.243 C 
ATOM      7  O   GLY A   4      15.220 -39.685  15.279  0.00  0.00    -0.273 OA
ATOM      8  N   ASN A   5      14.870 -40.381  13.188  0.00  0.00    -0.297 N 
ATOM      9  H   ASN A   5      14.205 -40.720  12.464  0.00  0.00    +0.150 HD
BRANCH   8  10
ATOM     10  CA  ASN A   5      16.306 -40.270  12.895  0.00  0.00    +0.158 C 
BRANCH  10  11
ATOM     11  C   ASN A   5      16.616 -38.795  12.805  0.00  0.00    +0.241 C 
ATOM     12  N   VAL A   6      17.785 -38.429  13.276  0.00  0.00    -0.297 N 
ATOM     13  H   VAL A   6      18.491 -39.157  13.507  0.00  0.00    +0.150 HD
ATOM     14  O   ASN A   5      15.809 -37.984  12.298  0.00  0.00    -0.273 OA
BRANCH  12  15
ATOM     15  CA  VAL A   6      18.121 -37.006  13.486  0.00  0.00    +0.149 C 
BRANCH  15  16
ATOM     16  C   VAL A   6      19.257 -36.656  12.559  0.00  0.00    +0.241 C 
ATOM     17  O   VAL A   6      20.323 -37.305  12.647  0.00  0.00    -0.273 OA
ATOM     18  N   ILE A   7      19.063 -35.650  11.668  0.00  0.00    -0.298 N 
ATOM     19  H   ILE A   7      18.162 -35.131  11.694  0.00  0.00    +0.150 HD
BRANCH  18  20
ATOM     20  CA  ILE A   7      20.055 -35.267  10.682  0.00  0.00    +0.137 C 
BRANCH  20  21
ATOM     21  C   ILE A   7      20.720 -33.963  11.114  0.00  0.00    +0.227 C 
ATOM     22  O   ILE A   7      20.046 -32.973  11.401  0.00  0.00    -0.286 OA
ENDBRANCH  20  21
BRANCH  20  23
ATOM     23  CB  ILE A   7      19.467 -35.204   9.208  0.00  0.00    +0.026 C 
ATOM     24  CG2 ILE A   7      20.529 -34.616   8.298  0.00  0.00    +0.002 C 
BRANCH  23  25
ATOM     25  CG1 ILE A   7      19.097 -36.593   8.672  0.00  0.00    +0.002 C 
ATOM     26  CD1 ILE A   7      17.954 -37.321   9.404  0.00  0.00    +0.000 C 
ENDBRANCH  23  25
ENDBRANCH  20  23
ENDBRANCH  18  20
ENDBRANCH  15  16
BRANCH  15  27
ATOM     27  CB  VAL A   6      18.582 -36.786  14.968  0.00  0.00    +0.027 C 
ATOM     28  CG2 VAL A   6      17.440 -36.975  15.925  0.00  0.00    +0.002 C 
ATOM     29  CG1 VAL A   6      19.293 -35.388  15.136  0.00  0.00    +0.002 C 
ENDBRANCH  15  27
ENDBRANCH  12  15
ENDBRANCH  10  11
BRANCH  10  30
ATOM     30  CB  ASN A   5      16.686 -40.932  11.554  0.00  0.00    +0.114 C 
BRANCH  30  31
ATOM     31  CG  ASN A   5      16.321 -42.405  11.499  0.00  0.00    +0.222 C 
ATOM     32  OD1 ASN A   5      16.500 -43.170  12.469  0.00  0.00    -0.275 OA
ATOM     33  ND2 ASN A   5      15.825 -42.826  10.332  0.00  0.00    -0.329 N 
ATOM     34 HD21 ASN A   5      15.571 -43.827  10.205  0.00  0.00    +0.145 HD
ATOM     35 HD22 ASN A   5      15.693 -42.153   9.550  0.00  0.00    +0.145 HD
ENDBRANCH  30  31
ENDBRANCH  10  30
ENDBRANCH   8  10
ENDBRANCH   5   6
ENDBRANCH   3   5
BRANCH   1  36
ATOM     36  CA  PHE A   3      11.489 -42.690  12.316  0.00  0.00    +0.153 C 
BRANCH  36  39
ATOM     37  C   ASP A   2       9.716 -41.217  11.509  0.00  0.00    +0.241 C 
ATOM     38  O   ASP A   2       8.892 -41.632  12.340  0.00  0.00    -0.273 OA
ATOM     39  N   PHE A   3      10.948 -41.690  11.424  0.00  0.00    -0.297 N 
ATOM     40  H   PHE A   3      11.563 -41.321  10.671  0.00  0.00    +0.150 HD
BRANCH  37  41
ATOM     41  CA  ASP A   2       9.343 -40.091  10.568  0.00  0.00    +0.160 C 
BRANCH  41  44
ATOM     42  C   ASP A   1      11.336 -38.733  10.550  0.00  0.00    +0.239 C 
ATOM     43  O   ASP A   1      11.237 -38.571  11.817  0.00  0.00    -0.274 OA
ATOM     44  N   ASP A   2      10.473 -39.469   9.845  0.00  0.00    -0.297 N 
ATOM     45  H   ASP A   2      10.592 -39.600   8.820  0.00  0.00    +0.150 HD
BRANCH  42  46
ATOM     46  CA  ASP A   1      12.402 -38.002   9.737  0.00  0.00    +0.156 C 
BRANCH  46  47
ATOM     47  N   ASP A   1      13.297 -37.229  10.618  0.00  0.00    -0.238 NA
ATOM     48  H   ASP A   1      14.158 -37.682  10.987  0.00  0.00    +0.142 HD
ENDBRANCH  46  47
BRANCH  46  49
ATOM     49  CB  ASP A   1      13.157 -38.924   8.802  0.00  0.00    +0.140 C 
BRANCH  49  50
ATOM     50  CG  ASP A   1      13.792 -40.114   9.483  0.00  0.00    +0.367 C 
ATOM     51  OD2 ASP A   1      13.447 -40.443  10.672  0.00  0.00    -0.246 OA
ATOM     52  OD1 ASP A   1      14.648 -40.731   8.812  0.00  0.00    -0.246 OA
ENDBRANCH  49  50
ENDBRANCH  46  49
ENDBRANCH  42  46
ENDBRANCH  41  44
BRANCH  41  53
ATOM     53  CB  ASP A   2       8.287 -40.545   9.567  0.00  0.00    +0.143 C 
BRANCH  53  54
ATOM     54  CG  ASP A   2       7.511 -39.367   8.980  0.00  0.00    +0.367 C 
ATOM     55  OD2 ASP A   2       6.640 -38.884   9.665  0.00  0.00    -0.246 OA
ATOM     56  OD1 ASP A   2       7.738 -38.952   7.819  0.00  0.00    -0.246 OA
ENDBRANCH  53  54
ENDBRANCH  41  53
ENDBRANCH  37  41
ENDBRANCH  36  39
BRANCH  36  57
ATOM     57  CB  PHE A   3      12.594 -43.521  11.640  0.00  0.00    +0.055 C 
BRANCH  57  58
ATOM     58  CG  PHE A   3      12.144 -44.182  10.346  0.00  0.00    -0.020 A 
ATOM     59  CD2 PHE A   3      11.396 -45.355  10.364  0.00  0.00    -0.004 A 
ATOM     60  CE2 PHE A   3      10.935 -45.934   9.180  0.00  0.00    -0.000 A 
ATOM     61  CZ  PHE A   3      11.220 -45.339   7.988  0.00  0.00    -0.000 A 
ATOM     62  CE1 PHE A   3      11.921 -44.133   7.967  0.00  0.00    -0.000 A 
ATOM     63  CD1 PHE A   3      12.382 -43.571   9.130  0.00  0.00    -0.004 A 
ENDBRANCH  57  58
ENDBRANCH  36  57
ENDBRANCH   1  36
TORSDOF 25
REMARK  Name = ../refined-set-2016/2wr8/2wr8_pocket.pdb
REMARK  252 active torsions:
REMARK  status: ('A' for Active; 'I' for Inactive)
REMARK    1  A    between atoms: _1  and  _3
REMARK    2  A    between atoms: _3  and  _4
REMARK    3  A    between atoms: _3  and  _6
REMARK    4  A    between atoms: _6  and  _7
REMARK    5  A    between atoms: _13  and  _15
REMARK    6  A    between atoms: _15  and  _16
REMARK    7  A    between atoms: _15  and  _18
REMARK    8  A    between atoms: _18  and  _19
REMARK    9  A    between atoms: _24  and  _25
REMARK   10  A    between atoms: _27  and  _29
REMARK   11  A    between atoms: _29  and  _30
REMARK   12  A    between atoms: _29  and  _32
REMARK   13  A    between atoms: _32  and  _33
REMARK   14  A    between atoms: _36  and  _38
REMARK   15  A    between atoms: _38  and  _39
REMARK   16  A    between atoms: _38  and  _41
REMARK   17  A    between atoms: _41  and  _42
REMARK   18  A    between atoms: _45  and  _47
REMARK   19  A    between atoms: _47  and  _48
REMARK   20  A    between atoms: _47  and  _50
REMARK   21  A    between atoms: _50  and  _51
REMARK   22  A    between atoms: _57  and  _59
REMARK   23  A    between atoms: _59  and  _60
REMARK   24  A    between atoms: _62  and  _64
REMARK   25  A    between atoms: _64  and  _65
REMARK   26  A    between atoms: _64  and  _67
REMARK   27  A    between atoms: _67  and  _68
REMARK   28  A    between atoms: _73  and  _75
REMARK   29  A    between atoms: _75  and  _76
REMARK   30  A    between atoms: _75  and  _78
REMARK   31  A    between atoms: _81  and  _83
REMARK   32  A    between atoms: _83  and  _84
REMARK   33  A    between atoms: _83  and  _86
REMARK   34  A    between atoms: _86  and  _87
REMARK   35  A    between atoms: _90  and  _92
REMARK   36  A    between atoms: _92  and  _93
REMARK   37  A    between atoms: _92  and  _95
REMARK   38  A    between atoms: _95  and  _96
REMARK   39  A    between atoms: _96  and  _97
REMARK   40  A    between atoms: _100  and  _102
REMARK   41  A    between atoms: _102  and  _103
REMARK   42  A    between atoms: _102  and  _105
REMARK   43  A    between atoms: _105  and  _106
REMARK   44  A    between atoms: _109  and  _111
REMARK   45  A    between atoms: _111  and  _112
REMARK   46  A    between atoms: _111  and  _114
REMARK   47  A    between atoms: _114  and  _115
REMARK   48  A    between atoms: _120  and  _121
REMARK   49  A    between atoms: _123  and  _125
REMARK   50  A    between atoms: _125  and  _126
REMARK   51  A    between atoms: _128  and  _130
REMARK   52  A    between atoms: _130  and  _131
REMARK   53  A    between atoms: _130  and  _133
REMARK   54  A    between atoms: _133  and  _134
REMARK   55  A    between atoms: _137  and  _139
REMARK   56  A    between atoms: _139  and  _140
REMARK   57  A    between atoms: _139  and  _142
REMARK   58  A    between atoms: _145  and  _147
REMARK   59  A    between atoms: _147  and  _148
REMARK   60  A    between atoms: _147  and  _150
REMARK   61  A    between atoms: _150  and  _151
REMARK   62  A    between atoms: _151  and  _152
REMARK   63  A    between atoms: _152  and  _153
REMARK   64  A    between atoms: _153  and  _154
REMARK   65  A    between atoms: _158  and  _160
REMARK   66  A    between atoms: _160  and  _161
REMARK   67  A    between atoms: _163  and  _165
REMARK   68  A    between atoms: _165  and  _166
REMARK   69  A    between atoms: _165  and  _168
REMARK   70  A    between atoms: _168  and  _169
REMARK   71  A    between atoms: _169  and  _170
REMARK   72  A    between atoms: _173  and  _175
REMARK   73  A    between atoms: _175  and  _176
REMARK   74  A    between atoms: _175  and  _178
REMARK   75  A    between atoms: _178  and  _179
REMARK   76  A    between atoms: _182  and  _184
REMARK   77  A    between atoms: _184  and  _185
REMARK   78  A    between atoms: _184  and  _187
REMARK   79  A    between atoms: _187  and  _188
REMARK   80  A    between atoms: _192  and  _193
REMARK   81  A    between atoms: _198  and  _200
REMARK   82  A    between atoms: _200  and  _201
REMARK   83  A    between atoms: _203  and  _205
REMARK   84  A    between atoms: _205  and  _206
REMARK   85  A    between atoms: _205  and  _208
REMARK   86  A    between atoms: _208  and  _209
REMARK   87  A    between atoms: _211  and  _213
REMARK   88  A    between atoms: _213  and  _214
REMARK   89  A    between atoms: _213  and  _216
REMARK   90  A    between atoms: _216  and  _217
REMARK   91  A    between atoms: _222  and  _224
REMARK   92  A    between atoms: _224  and  _225
REMARK   93  A    between atoms: _224  and  _227
REMARK   94  A    between atoms: _227  and  _228
REMARK   95  A    between atoms: _231  and  _233
REMARK   96  A    between atoms: _233  and  _234
REMARK   97  A    between atoms: _233  and  _236
REMARK   98  A    between atoms: _236  and  _237
REMARK   99  A    between atoms: _242  and  _243
REMARK  100  A    between atoms: _245  and  _247
REMARK  101  A    between atoms: _247  and  _248
REMARK  102  A    between atoms: _247  and  _250
REMARK  103  A    between atoms: _250  and  _251
REMARK  104  A    between atoms: _251  and  _252
REMARK  105  A    between atoms: _255  and  _257
REMARK  106  A    between atoms: _257  and  _258
REMARK  107  A    between atoms: _257  and  _260
REMARK  108  A    between atoms: _260  and  _261
REMARK  109  A    between atoms: _264  and  _266
REMARK  110  A    between atoms: _266  and  _267
REMARK  111  A    between atoms: _270  and  _272
REMARK  112  A    between atoms: _272  and  _273
REMARK  113  A    between atoms: _272  and  _275
REMARK  114  A    between atoms: _278  and  _280
REMARK  115  A    between atoms: _280  and  _281
REMARK  116  A    between atoms: _280  and  _283
REMARK  117  A    between atoms: _283  and  _284
REMARK  118  A    between atoms: _289  and  _291
REMARK  119  A    between atoms: _291  and  _292
REMARK  120  A    between atoms: _291  and  _294
REMARK  121  A    between atoms: _294  and  _295
REMARK  122  A    between atoms: _295  and  _296
REMARK  123  A    between atoms: _298  and  _300
REMARK  124  A    between atoms: _300  and  _301
REMARK  125  A    between atoms: _303  and  _305
REMARK  126  A    between atoms: _305  and  _306
REMARK  127  A    between atoms: _305  and  _308
REMARK  128  A    between atoms: _308  and  _309
REMARK  129  A    between atoms: _311  and  _313
REMARK  130  A    between atoms: _313  and  _314
REMARK  131  A    between atoms: _317  and  _319
REMARK  132  A    between atoms: _319  and  _320
REMARK  133  A    between atoms: _323  and  _325
REMARK  134  A    between atoms: _325  and  _326
REMARK  135  A    between atoms: _325  and  _328
REMARK  136  A    between atoms: _328  and  _329
REMARK  137  A    between atoms: _332  and  _334
REMARK  138  A    between atoms: _334  and  _335
REMARK  139  A    between atoms: _334  and  _337
REMARK  140  A    between atoms: _337  and  _338
REMARK  141  A    between atoms: _341  and  _343
REMARK  142  A    between atoms: _343  and  _344
REMARK  143  A    between atoms: _343  and  _346
REMARK  144  A    between atoms: _346  and  _347
REMARK  145  A    between atoms: _350  and  _352
REMARK  146  A    between atoms: _352  and  _353
REMARK  147  A    between atoms: _352  and  _355
REMARK  148  A    between atoms: _355  and  _356
REMARK  149  A    between atoms: _362  and  _364
REMARK  150  A    between atoms: _364  and  _365
REMARK  151  A    between atoms: _368  and  _369
REMARK  152  A    between atoms: _374  and  _376
REMARK  153  A    between atoms: _376  and  _377
REMARK  154  A    between atoms: _376  and  _379
REMARK  155  A    between atoms: _379  and  _380
REMARK  156  A    between atoms: _385  and  _386
REMARK  157  A    between atoms: _388  and  _390
REMARK  158  A    between atoms: _390  and  _391
REMARK  159  A    between atoms: _390  and  _393
REMARK  160  A    between atoms: _393  and  _394
REMARK  161  A    between atoms: _394  and  _395
REMARK  162  A    between atoms: _398  and  _400
REMARK  163  A    between atoms: _400  and  _401
REMARK  164  A    between atoms: _400  and  _403
REMARK  165  A    between atoms: _406  and  _408
REMARK  166  A    between atoms: _408  and  _409
REMARK  167  A    between atoms: _408  and  _411
REMARK  168  A    between atoms: _411  and  _412
REMARK  169  A    between atoms: _415  and  _417
REMARK  170  A    between atoms: _417  and  _418
REMARK  171  A    between atoms: _417  and  _420
REMARK  172  A    between atoms: _420  and  _421
REMARK  173  A    between atoms: _421  and  _422
REMARK  174  A    between atoms: _422  and  _423
REMARK  175  A    between atoms: _432  and  _434
REMARK  176  A    between atoms: _434  and  _435
REMARK  177  A    between atoms: _434  and  _437
REMARK  178  A    between atoms: _437  and  _438
REMARK  179  A    between atoms: _443  and  _445
REMARK  180  A    between atoms: _445  and  _446
REMARK  181  A    between atoms: _445  and  _448
REMARK  182  A    between atoms: _448  and  _449
REMARK  183  A    between atoms: _451  and  _453
REMARK  184  A    between atoms: _453  and  _454
REMARK  185  A    between atoms: _453  and  _456
REMARK  186  A    between atoms: _456  and  _457
REMARK  187  A    between atoms: _460  and  _462
REMARK  188  A    between atoms: _462  and  _463
REMARK  189  A    between atoms: _465  and  _467
REMARK  190  A    between atoms: _467  and  _468
REMARK  191  A    between atoms: _467  and  _470
REMARK  192  A    between atoms: _473  and  _475
REMARK  193  A    between atoms: _475  and  _476
REMARK  194  A    between atoms: _475  and  _478
REMARK  195  A    between atoms: _478  and  _479
REMARK  196  A    between atoms: _482  and  _484
REMARK  197  A    between atoms: _484  and  _485
REMARK  198  A    between atoms: _484  and  _487
REMARK  199  A    between atoms: _487  and  _488
REMARK  200  A    between atoms: _492  and  _493
REMARK  201  A    between atoms: _498  and  _500
REMARK  202  A    between atoms: _500  and  _501
REMARK  203  A    between atoms: _503  and  _505
REMARK  204  A    between atoms: _505  and  _506
REMARK  205  A    between atoms: _505  and  _508
REMARK  206  A    between atoms: _511  and  _513
REMARK  207  A    between atoms: _513  and  _514
REMARK  208  A    between atoms: _513  and  _516
REMARK  209  A    between atoms: _516  and  _517
REMARK  210  A    between atoms: _517  and  _518
REMARK  211  A    between atoms: _518  and  _519
REMARK  212  A    between atoms: _529  and  _530
REMARK  213  A    between atoms: _535  and  _537
REMARK  214  A    between atoms: _537  and  _538
REMARK  215  A    between atoms: _537  and  _540
REMARK  216  A    between atoms: _540  and  _541
REMARK  217  A    between atoms: _546  and  _548
REMARK  218  A    between atoms: _548  and  _549
REMARK  219  A    between atoms: _548  and  _551
REMARK  220  A    between atoms: _551  and  _552
REMARK  221  A    between atoms: _554  and  _556
REMARK  222  A    between atoms: _556  and  _557
REMARK  223  A    between atoms: _556  and  _559
REMARK  224  A    between atoms: _559  and  _560
REMARK  225  A    between atoms: _562  and  _564
REMARK  226  A    between atoms: _564  and  _565
REMARK  227  A    between atoms: _564  and  _567
REMARK  228  A    between atoms: _567  and  _568
REMARK  229  A    between atoms: _571  and  _573
REMARK  230  A    between atoms: _573  and  _574
REMARK  231  A    between atoms: _573  and  _576
REMARK  232  A    between atoms: _576  and  _577
REMARK  233  A    between atoms: _583  and  _585
REMARK  234  A    between atoms: _585  and  _586
REMARK  235  A    between atoms: _585  and  _588
REMARK  236  A    between atoms: _588  and  _589
REMARK  237  A    between atoms: _594  and  _596
REMARK  238  A    between atoms: _596  and  _597
REMARK  239  A    between atoms: _599  and  _601
REMARK  240  A    between atoms: _601  and  _602
REMARK  241  A    between atoms: _601  and  _604
REMARK  242  A    between atoms: _604  and  _605
REMARK  243  A    between atoms: _605  and  _606
REMARK  244  A    between atoms: _606  and  _607
REMARK  245  A    between atoms: _616  and  _618
REMARK  246  A    between atoms: _618  and  _619
REMARK  247  A    between atoms: _618  and  _621
REMARK  248  A    between atoms: _621  and  _622
REMARK  249  A    between atoms: _625  and  _627
REMARK  250  A    between atoms: _627  and  _628
REMARK  251  A    between atoms: _627  and  _630
REMARK  252  A    between atoms: _630  and  _631
REMARK                            x       y       z     vdW  Elec       q    Type
REMARK                         _______ _______ _______ _____ _____    ______ ____
ROOT
ATOM      1  CA  TYR A   3      20.909 -49.672  11.489  0.00  0.00    +0.153 C 
ENDROOT
BRANCH   1   4
ATOM      2  C   THR A   2      22.896 -49.768  10.015  0.00  0.00    +0.243 C 
ATOM      3  O   THR A   2      23.633 -50.119  10.897  0.00  0.00    -0.273 OA
ATOM      4  N   TYR A   3      21.589 -49.564  10.198  0.00  0.00    -0.297 N 
ATOM      5  H   TYR A   3      21.016 -49.312   9.367  0.00  0.00    +0.150 HD
BRANCH   2   6
ATOM      6  CA  THR A   2      23.401 -49.527   8.606  0.00  0.00    +0.176 C 
BRANCH   6   8
ATOM      7  C   GLU A   1      25.289 -48.258   7.724  0.00  0.00    +0.238 C 
ATOM      8  N   THR A   2      24.815 -49.186   8.555  0.00  0.00    -0.295 N 
ATOM      9  H   THR A   2      25.476 -49.682   9.187  0.00  0.00    +0.150 HD
ATOM     10  O   GLU A   1      24.581 -47.607   6.957  0.00  0.00    -0.274 OA
BRANCH   7  11
ATOM     11  CA  GLU A   1      26.798 -48.069   7.684  0.00  0.00    +0.145 C 
BRANCH  11  12
ATOM     12  N   GLU A   1      27.461 -48.324   8.966  0.00  0.00    -0.238 NA
ATOM     13  H   GLU A   1      27.973 -49.215   9.125  0.00  0.00    +0.142 HD
ENDBRANCH  11  12
BRANCH  11  14
ATOM     14  CB  GLU A   1      27.391 -48.937   6.572  0.00  0.00    +0.038 C 
BRANCH  14  15
ATOM     15  CG  GLU A   1      28.745 -48.497   6.083  0.00  0.00    +0.116 C 
BRANCH  15  16
ATOM     16  CD  GLU A   1      28.710 -47.119   5.460  0.00  0.00    +0.365 C 
ATOM     17  OE2 GLU A   1      29.489 -46.238   5.911  0.00  0.00    -0.246 OA
ATOM     18  OE1 GLU A   1      27.903 -46.902   4.527  0.00  0.00    -0.246 OA
ENDBRANCH  15  16
ENDBRANCH  14  15
ENDBRANCH  11  14
ENDBRANCH   7  11
ENDBRANCH   6   8
BRANCH   6  19
ATOM     19  CB  THR A   2      23.060 -50.769   7.743  0.00  0.00    +0.137 C 
ATOM     20  CG2 THR A   2      23.400 -50.535   6.260  0.00  0.00    +0.034 C 
BRANCH  19  21
ATOM     21  OG1 THR A   2      23.792 -51.895   8.211  0.00  0.00    -0.382 OA
ATOM     22  HG1 THR A   2      23.571 -52.685   7.657  0.00  0.00    +0.210 HD
ENDBRANCH  19  21
ENDBRANCH   6  19
ENDBRANCH   2   6
ENDBRANCH   1   4
BRANCH   1  23
ATOM     23  C   TYR A   3      21.091 -51.058  12.136  0.00  0.00    +0.241 C 
ATOM     24  O   TYR A   3      21.302 -51.172  13.334  0.00  0.00    -0.273 OA
ATOM     25  N   GLY A   4      20.970 -52.084  11.323  0.00  0.00    -0.295 N 
ATOM     26  H   GLY A   4      20.811 -51.908  10.310  0.00  0.00    +0.150 HD
BRANCH  25  27
ATOM     27  CA  GLY A   4      21.052 -53.463  11.798  0.00  0.00    +0.176 C 
BRANCH  27  28
ATOM     28  C   GLY A   4      22.417 -53.921  12.227  0.00  0.00    +0.243 C 
ATOM     29  O   GLY A   4      22.612 -55.111  12.534  0.00  0.00    -0.273 OA
ATOM     30  N   LEU A   5      23.396 -53.021  12.253  0.00  0.00    -0.297 N 
ATOM     31  H   LEU A   5      23.220 -52.055  11.911  0.00  0.00    +0.150 HD
BRANCH  30  32
ATOM     32  CA  LEU A   5      24.716 -53.383  12.759  0.00  0.00    +0.149 C 
BRANCH  32  33
ATOM     33  C   LEU A   5      24.862 -53.155  14.258  0.00  0.00    +0.241 C 
ATOM     34  N   VAL A   6      23.806 -52.681  14.920  0.00  0.00    -0.298 N 
ATOM     35  H   VAL A   6      23.002 -52.300  14.381  0.00  0.00    +0.150 HD
ATOM     36  O   LEU A   5      25.918 -53.421  14.800  0.00  0.00    -0.273 OA
BRANCH  34  37
ATOM     37  CA  VAL A   6      23.745 -52.681  16.390  0.00  0.00    +0.137 C 
BRANCH  37  38
ATOM     38  CB  VAL A   6      23.783 -51.248  16.963  0.00  0.00    +0.026 C 
ATOM     39  CG2 VAL A   6      22.521 -50.472  16.607  0.00  0.00    +0.002 C 
ATOM     40  CG1 VAL A   6      25.017 -50.488  16.457  0.00  0.00    +0.002 C 
ENDBRANCH  37  38
BRANCH  37  41
ATOM     41  C   VAL A   6      22.475 -53.422  16.854  0.00  0.00    +0.227 C 
ATOM     42  O   VAL A   6      21.581 -53.702  16.042  0.00  0.00    -0.286 OA
ENDBRANCH  37  41
ENDBRANCH  34  37
ENDBRANCH  32  33
BRANCH  32  43
ATOM     43  CB  LEU A   5      25.824 -52.679  11.978  0.00  0.00    +0.029 C 
BRANCH  43  44
ATOM     44  CG  LEU A   5      25.916 -53.118  10.520  0.00  0.00    +0.002 C 
ATOM     45  CD2 LEU A   5      26.397 -54.599  10.417  0.00  0.00    +0.000 C 
ATOM     46  CD1 LEU A   5      26.852 -52.185   9.777  0.00  0.00    +0.000 C 
ENDBRANCH  43  44
ENDBRANCH  32  43
ENDBRANCH  30  32
ENDBRANCH  27  28
ENDBRANCH  25  27
ENDBRANCH   1  23
BRANCH   1  47
ATOM     47  CB  TYR A   3      19.392 -49.436  11.298  0.00  0.00    +0.055 C 
BRANCH  47  48
ATOM     48  CG  TYR A   3      19.057 -48.123  10.620  0.00  0.00    -0.020 A 
ATOM     49  CD2 TYR A   3      19.133 -46.926  11.296  0.00  0.00    -0.001 A 
ATOM     50  CE2 TYR A   3      18.844 -45.731  10.650  0.00  0.00    +0.036 A 
ATOM     51  CZ  TYR A   3      18.504 -45.719   9.321  0.00  0.00    +0.134 A 
ATOM     52  CE1 TYR A   3      18.433 -46.896   8.625  0.00  0.00    +0.036 A 
ATOM     53  CD1 TYR A   3      18.702 -48.085   9.271  0.00  0.00    -0.001 A 
BRANCH  51  54
ATOM     54  OH  TYR A   3      18.250 -44.527   8.683  0.00  0.00    -0.506 OA
ATOM     55  HH  TYR A   3      18.345 -43.782   9.328  0.00  0.00    +0.292 HD
ENDBRANCH  51  54
ENDBRANCH  47  48
ENDBRANCH   1  47
TORSDOF 23
REMARK  Name = ../refined-set-2016/2wr8/2wr8_pocket.pdb
REMARK  252 active torsions:
REMARK  status: ('A' for Active; 'I' for Inactive)
REMARK    1  A    between atoms: _1  and  _3
REMARK    2  A    between atoms: _3  and  _4
REMARK    3  A    between atoms: _3  and  _6
REMARK    4  A    between atoms: _6  and  _7
REMARK    5  A    between atoms: _13  and  _15
REMARK    6  A    between atoms: _15  and  _16
REMARK    7  A    between atoms: _15  and  _18
REMARK    8  A    between atoms: _18  and  _19
REMARK    9  A    between atoms: _24  and  _25
REMARK   10  A    between atoms: _27  and  _29
REMARK   11  A    between atoms: _29  and  _30
REMARK   12  A    between atoms: _29  and  _32
REMARK   13  A    between atoms: _32  and  _33
REMARK   14  A    between atoms: _36  and  _38
REMARK   15  A    between atoms: _38  and  _39
REMARK   16  A    between atoms: _38  and  _41
REMARK   17  A    between atoms: _41  and  _42
REMARK   18  A    between atoms: _45  and  _47
REMARK   19  A    between atoms: _47  and  _48
REMARK   20  A    between atoms: _47  and  _50
REMARK   21  A    between atoms: _50  and  _51
REMARK   22  A    between atoms: _57  and  _59
REMARK   23  A    between atoms: _59  and  _60
REMARK   24  A    between atoms: _62  and  _64
REMARK   25  A    between atoms: _64  and  _65
REMARK   26  A    between atoms: _64  and  _67
REMARK   27  A    between atoms: _67  and  _68
REMARK   28  A    between atoms: _73  and  _75
REMARK   29  A    between atoms: _75  and  _76
REMARK   30  A    between atoms: _75  and  _78
REMARK   31  A    between atoms: _81  and  _83
REMARK   32  A    between atoms: _83  and  _84
REMARK   33  A    between atoms: _83  and  _86
REMARK   34  A    between atoms: _86  and  _87
REMARK   35  A    between atoms: _90  and  _92
REMARK   36  A    between atoms: _92  and  _93
REMARK   37  A    between atoms: _92  and  _95
REMARK   38  A    between atoms: _95  and  _96
REMARK   39  A    between atoms: _96  and  _97
REMARK   40  A    between atoms: _100  and  _102
REMARK   41  A    between atoms: _102  and  _103
REMARK   42  A    between atoms: _102  and  _105
REMARK   43  A    between atoms: _105  and  _106
REMARK   44  A    between atoms: _109  and  _111
REMARK   45  A    between atoms: _111  and  _112
REMARK   46  A    between atoms: _111  and  _114
REMARK   47  A    between atoms: _114  and  _115
REMARK   48  A    between atoms: _120  and  _121
REMARK   49  A    between atoms: _123  and  _125
REMARK   50  A    between atoms: _125  and  _126
REMARK   51  A    between atoms: _128  and  _130
REMARK   52  A    between atoms: _130  and  _131
REMARK   53  A    between atoms: _130  and  _133
REMARK   54  A    between atoms: _133  and  _134
REMARK   55  A    between atoms: _137  and  _139
REMARK   56  A    between atoms: _139  and  _140
REMARK   57  A    between atoms: _139  and  _142
REMARK   58  A    between atoms: _145  and  _147
REMARK   59  A    between atoms: _147  and  _148
REMARK   60  A    between atoms: _147  and  _150
REMARK   61  A    between atoms: _150  and  _151
REMARK   62  A    between atoms: _151  and  _152
REMARK   63  A    between atoms: _152  and  _153
REMARK   64  A    between atoms: _153  and  _154
REMARK   65  A    between atoms: _158  and  _160
REMARK   66  A    between atoms: _160  and  _161
REMARK   67  A    between atoms: _163  and  _165
REMARK   68  A    between atoms: _165  and  _166
REMARK   69  A    between atoms: _165  and  _168
REMARK   70  A    between atoms: _168  and  _169
REMARK   71  A    between atoms: _169  and  _170
REMARK   72  A    between atoms: _173  and  _175
REMARK   73  A    between atoms: _175  and  _176
REMARK   74  A    between atoms: _175  and  _178
REMARK   75  A    between atoms: _178  and  _179
REMARK   76  A    between atoms: _182  and  _184
REMARK   77  A    between atoms: _184  and  _185
REMARK   78  A    between atoms: _184  and  _187
REMARK   79  A    between atoms: _187  and  _188
REMARK   80  A    between atoms: _192  and  _193
REMARK   81  A    between atoms: _198  and  _200
REMARK   82  A    between atoms: _200  and  _201
REMARK   83  A    between atoms: _203  and  _205
REMARK   84  A    between atoms: _205  and  _206
REMARK   85  A    between atoms: _205  and  _208
REMARK   86  A    between atoms: _208  and  _209
REMARK   87  A    between atoms: _211  and  _213
REMARK   88  A    between atoms: _213  and  _214
REMARK   89  A    between atoms: _213  and  _216
REMARK   90  A    between atoms: _216  and  _217
REMARK   91  A    between atoms: _222  and  _224
REMARK   92  A    between atoms: _224  and  _225
REMARK   93  A    between atoms: _224  and  _227
REMARK   94  A    between atoms: _227  and  _228
REMARK   95  A    between atoms: _231  and  _233
REMARK   96  A    between atoms: _233  and  _234
REMARK   97  A    between atoms: _233  and  _236
REMARK   98  A    between atoms: _236  and  _237
REMARK   99  A    between atoms: _242  and  _243
REMARK  100  A    between atoms: _245  and  _247
REMARK  101  A    between atoms: _247  and  _248
REMARK  102  A    between atoms: _247  and  _250
REMARK  103  A    between atoms: _250  and  _251
REMARK  104  A    between atoms: _251  and  _252
REMARK  105  A    between atoms: _255  and  _257
REMARK  106  A    between atoms: _257  and  _258
REMARK  107  A    between atoms: _257  and  _260
REMARK  108  A    between atoms: _260  and  _261
REMARK  109  A    between atoms: _264  and  _266
REMARK  110  A    between atoms: _266  and  _267
REMARK  111  A    between atoms: _270  and  _272
REMARK  112  A    between atoms: _272  and  _273
REMARK  113  A    between atoms: _272  and  _275
REMARK  114  A    between atoms: _278  and  _280
REMARK  115  A    between atoms: _280  and  _281
REMARK  116  A    between atoms: _280  and  _283
REMARK  117  A    between atoms: _283  and  _284
REMARK  118  A    between atoms: _289  and  _291
REMARK  119  A    between atoms: _291  and  _292
REMARK  120  A    between atoms: _291  and  _294
REMARK  121  A    between atoms: _294  and  _295
REMARK  122  A    between atoms: _295  and  _296
REMARK  123  A    between atoms: _298  and  _300
REMARK  124  A    between atoms: _300  and  _301
REMARK  125  A    between atoms: _303  and  _305
REMARK  126  A    between atoms: _305  and  _306
REMARK  127  A    between atoms: _305  and  _308
REMARK  128  A    between atoms: _308  and  _309
REMARK  129  A    between atoms: _311  and  _313
REMARK  130  A    between atoms: _313  and  _314
REMARK  131  A    between atoms: _317  and  _319
REMARK  132  A    between atoms: _319  and  _320
REMARK  133  A    between atoms: _323  and  _325
REMARK  134  A    between atoms: _325  and  _326
REMARK  135  A    between atoms: _325  and  _328
REMARK  136  A    between atoms: _328  and  _329
REMARK  137  A    between atoms: _332  and  _334
REMARK  138  A    between atoms: _334  and  _335
REMARK  139  A    between atoms: _334  and  _337
REMARK  140  A    between atoms: _337  and  _338
REMARK  141  A    between atoms: _341  and  _343
REMARK  142  A    between atoms: _343  and  _344
REMARK  143  A    between atoms: _343  and  _346
REMARK  144  A    between atoms: _346  and  _347
REMARK  145  A    between atoms: _350  and  _352
REMARK  146  A    between atoms: _352  and  _353
REMARK  147  A    between atoms: _352  and  _355
REMARK  148  A    between atoms: _355  and  _356
REMARK  149  A    between atoms: _362  and  _364
REMARK  150  A    between atoms: _364  and  _365
REMARK  151  A    between atoms: _368  and  _369
REMARK  152  A    between atoms: _374  and  _376
REMARK  153  A    between atoms: _376  and  _377
REMARK  154  A    between atoms: _376  and  _379
REMARK  155  A    between atoms: _379  and  _380
REMARK  156  A    between atoms: _385  and  _386
REMARK  157  A    between atoms: _388  and  _390
REMARK  158  A    between atoms: _390  and  _391
REMARK  159  A    between atoms: _390  and  _393
REMARK  160  A    between atoms: _393  and  _394
REMARK  161  A    between atoms: _394  and  _395
REMARK  162  A    between atoms: _398  and  _400
REMARK  163  A    between atoms: _400  and  _401
REMARK  164  A    between atoms: _400  and  _403
REMARK  165  A    between atoms: _406  and  _408
REMARK  166  A    between atoms: _408  and  _409
REMARK  167  A    between atoms: _408  and  _411
REMARK  168  A    between atoms: _411  and  _412
REMARK  169  A    between atoms: _415  and  _417
REMARK  170  A    between atoms: _417  and  _418
REMARK  171  A    between atoms: _417  and  _420
REMARK  172  A    between atoms: _420  and  _421
REMARK  173  A    between atoms: _421  and  _422
REMARK  174  A    between atoms: _422  and  _423
REMARK  175  A    between atoms: _432  and  _434
REMARK  176  A    between atoms: _434  and  _435
REMARK  177  A    between atoms: _434  and  _437
REMARK  178  A    between atoms: _437  and  _438
REMARK  179  A    between atoms: _443  and  _445
REMARK  180  A    between atoms: _445  and  _446
REMARK  181  A    between atoms: _445  and  _448
REMARK  182  A    between atoms: _448  and  _449
REMARK  183  A    between atoms: _451  and  _453
REMARK  184  A    between atoms: _453  and  _454
REMARK  185  A    between atoms: _453  and  _456
REMARK  186  A    between atoms: _456  and  _457
REMARK  187  A    between atoms: _460  and  _462
REMARK  188  A    between atoms: _462  and  _463
REMARK  189  A    between atoms: _465  and  _467
REMARK  190  A    between atoms: _467  and  _468
REMARK  191  A    between atoms: _467  and  _470
REMARK  192  A    between atoms: _473  and  _475
REMARK  193  A    between atoms: _475  and  _476
REMARK  194  A    between atoms: _475  and  _478
REMARK  195  A    between atoms: _478  and  _479
REMARK  196  A    between atoms: _482  and  _484
REMARK  197  A    between atoms: _484  and  _485
REMARK  198  A    between atoms: _484  and  _487
REMARK  199  A    between atoms: _487  and  _488
REMARK  200  A    between atoms: _492  and  _493
REMARK  201  A    between atoms: _498  and  _500
REMARK  202  A    between atoms: _500  and  _501
REMARK  203  A    between atoms: _503  and  _505
REMARK  204  A    between atoms: _505  and  _506
REMARK  205  A    between atoms: _505  and  _508
REMARK  206  A    between atoms: _511  and  _513
REMARK  207  A    between atoms: _513  and  _514
REMARK  208  A    between atoms: _513  and  _516
REMARK  209  A    between atoms: _516  and  _517
REMARK  210  A    between atoms: _517  and  _518
REMARK  211  A    between atoms: _518  and  _519
REMARK  212  A    between atoms: _529  and  _530
REMARK  213  A    between atoms: _535  and  _537
REMARK  214  A    between atoms: _537  and  _538
REMARK  215  A    between atoms: _537  and  _540
REMARK  216  A    between atoms: _540  and  _541
REMARK  217  A    between atoms: _546  and  _548
REMARK  218  A    between atoms: _548  and  _549
REMARK  219  A    between atoms: _548  and  _551
REMARK  220  A    between atoms: _551  and  _552
REMARK  221  A    between atoms: _554  and  _556
REMARK  222  A    between atoms: _556  and  _557
REMARK  223  A    between atoms: _556  and  _559
REMARK  224  A    between atoms: _559  and  _560
REMARK  225  A    between atoms: _562  and  _564
REMARK  226  A    between atoms: _564  and  _565
REMARK  227  A    between atoms: _564  and  _567
REMARK  228  A    between atoms: _567  and  _568
REMARK  229  A    between atoms: _571  and  _573
REMARK  230  A    between atoms: _573  and  _574
REMARK  231  A    between atoms: _573  and  _576
REMARK  232  A    between atoms: _576  and  _577
REMARK  233  A    between atoms: _583  and  _585
REMARK  234  A    between atoms: _585  and  _586
REMARK  235  A    between atoms: _585  and  _588
REMARK  236  A    between atoms: _588  and  _589
REMARK  237  A    between atoms: _594  and  _596
REMARK  238  A    between atoms: _596  and  _597
REMARK  239  A    between atoms: _599  and  _601
REMARK  240  A    between atoms: _601  and  _602
REMARK  241  A    between atoms: _601  and  _604
REMARK  242  A    between atoms: _604  and  _605
REMARK  243  A    between atoms: _605  and  _606
REMARK  244  A    between atoms: _606  and  _607
REMARK  245  A    between atoms: _616  and  _618
REMARK  246  A    between atoms: _618  and  _619
REMARK  247  A    between atoms: _618  and  _621
REMARK  248  A    between atoms: _621  and  _622
REMARK  249  A    between atoms: _625  and  _627
REMARK  250  A    between atoms: _627  and  _628
REMARK  251  A    between atoms: _627  and  _630
REMARK  252  A    between atoms: _630  and  _631
REMARK                            x       y       z     vdW  Elec       q    Type
REMARK                         _______ _______ _______ _____ _____    ______ ____
ROOT
ATOM      1  C   LYS A   1      17.507 -52.387  19.880  0.00  0.00    +0.238 C 
ATOM      2  O   LYS A   1      17.729 -52.897  20.964  0.00  0.00    -0.274 OA
ATOM      3  N   GLY A   2      17.200 -51.095  19.734  0.00  0.00    -0.296 N 
ATOM      4  H   GLY A   2      16.977 -50.728  18.787  0.00  0.00    +0.150 HD
ENDROOT
BRANCH   1   5
ATOM      5  CA  LYS A   1      17.587 -53.238  18.618  0.00  0.00    +0.145 C 
BRANCH   5   6
ATOM      6  N   LYS A   1      18.819 -54.030  18.621  0.00  0.00    -0.238 NA
ATOM      7  H   LYS A   1      18.753 -55.068  18.618  0.00  0.00    +0.142 HD
ENDBRANCH   5   6
BRANCH   5   8
ATOM      8  CB  LYS A   1      16.378 -54.155  18.555  0.00  0.00    +0.026 C 
BRANCH   8   9
ATOM      9  CG  LYS A   1      16.357 -54.967  17.293  0.00  0.00    -0.000 C 
BRANCH   9  10
ATOM     10  CD  LYS A   1      15.043 -55.707  17.054  0.00  0.00    -0.024 C 
BRANCH  10  11
ATOM     11  CE  LYS A   1      15.122 -56.483  15.721  0.00  0.00    -0.086 C 
BRANCH  11  12
ATOM     12  NZ  LYS A   1      13.852 -57.176  15.329  0.00  0.00    +0.380 N 
ATOM     13  HZ1 LYS A   1      13.592 -57.863  16.065  0.00  0.00    -0.089 HD
ATOM     14  HZ2 LYS A   1      13.093 -56.473  15.226  0.00  0.00    -0.089 HD
ATOM     15  HZ3 LYS A   1      13.993 -57.671  14.425  0.00  0.00    -0.089 HD
ENDBRANCH  11  12
ENDBRANCH  10  11
ENDBRANCH   9  10
ENDBRANCH   8   9
ENDBRANCH   5   8
ENDBRANCH   1   5
BRANCH   3  16
ATOM     16  CA  GLY A   2      17.172 -50.181  20.889  0.00  0.00    +0.176 C 
BRANCH  16  17
ATOM     17  C   GLY A   2      18.470 -49.416  21.103  0.00  0.00    +0.243 C 
ATOM     18  O   GLY A   2      18.513 -48.477  21.906  0.00  0.00    -0.273 OA
ATOM     19  N   GLU A   3      19.544 -49.828  20.435  0.00  0.00    -0.298 N 
ATOM     20  H   GLU A   3      19.464 -50.632  19.780  0.00  0.00    +0.150 HD
BRANCH  19  21
ATOM     21  CA  GLU A   3      20.834 -49.167  20.608  0.00  0.00    +0.137 C 
BRANCH  21  22
ATOM     22  C   GLU A   3      20.944 -47.987  19.678  0.00  0.00    +0.227 C 
ATOM     23  O   GLU A   3      20.424 -48.001  18.575  0.00  0.00    -0.286 OA
ENDBRANCH  21  22
BRANCH  21  24
ATOM     24  CB  GLU A   3      22.003 -50.109  20.305  0.00  0.00    +0.039 C 
BRANCH  24  25
ATOM     25  CG  GLU A   3      22.199 -51.193  21.329  0.00  0.00    +0.116 C 
BRANCH  25  26
ATOM     26  CD  GLU A   3      22.105 -50.674  22.752  0.00  0.00    +0.365 C 
ATOM     27  OE2 GLU A   3      21.013 -50.806  23.368  0.00  0.00    -0.246 OA
ATOM     28  OE1 GLU A   3      23.114 -50.115  23.240  0.00  0.00    -0.246 OA
ENDBRANCH  25  26
ENDBRANCH  24  25
ENDBRANCH  21  24
ENDBRANCH  19  21
ENDBRANCH  16  17
ENDBRANCH   3  16
TORSDOF 14
REMARK  Name = ../refined-set-2016/2wr8/2wr8_pocket.pdb
REMARK  252 active torsions:
REMARK  status: ('A' for Active; 'I' for Inactive)
REMARK    1  A    between atoms: _1  and  _3
REMARK    2  A    between atoms: _3  and  _4
REMARK    3  A    between atoms: _3  and  _6
REMARK    4  A    between atoms: _6  and  _7
REMARK    5  A    between atoms: _13  and  _15
REMARK    6  A    between atoms: _15  and  _16
REMARK    7  A    between atoms: _15  and  _18
REMARK    8  A    between atoms: _18  and  _19
REMARK    9  A    between atoms: _24  and  _25
REMARK   10  A    between atoms: _27  and  _29
REMARK   11  A    between atoms: _29  and  _30
REMARK   12  A    between atoms: _29  and  _32
REMARK   13  A    between atoms: _32  and  _33
REMARK   14  A    between atoms: _36  and  _38
REMARK   15  A    between atoms: _38  and  _39
REMARK   16  A    between atoms: _38  and  _41
REMARK   17  A    between atoms: _41  and  _42
REMARK   18  A    between atoms: _45  and  _47
REMARK   19  A    between atoms: _47  and  _48
REMARK   20  A    between atoms: _47  and  _50
REMARK   21  A    between atoms: _50  and  _51
REMARK   22  A    between atoms: _57  and  _59
REMARK   23  A    between atoms: _59  and  _60
REMARK   24  A    between atoms: _62  and  _64
REMARK   25  A    between atoms: _64  and  _65
REMARK   26  A    between atoms: _64  and  _67
REMARK   27  A    between atoms: _67  and  _68
REMARK   28  A    between atoms: _73  and  _75
REMARK   29  A    between atoms: _75  and  _76
REMARK   30  A    between atoms: _75  and  _78
REMARK   31  A    between atoms: _81  and  _83
REMARK   32  A    between atoms: _83  and  _84
REMARK   33  A    between atoms: _83  and  _86
REMARK   34  A    between atoms: _86  and  _87
REMARK   35  A    between atoms: _90  and  _92
REMARK   36  A    between atoms: _92  and  _93
REMARK   37  A    between atoms: _92  and  _95
REMARK   38  A    between atoms: _95  and  _96
REMARK   39  A    between atoms: _96  and  _97
REMARK   40  A    between atoms: _100  and  _102
REMARK   41  A    between atoms: _102  and  _103
REMARK   42  A    between atoms: _102  and  _105
REMARK   43  A    between atoms: _105  and  _106
REMARK   44  A    between atoms: _109  and  _111
REMARK   45  A    between atoms: _111  and  _112
REMARK   46  A    between atoms: _111  and  _114
REMARK   47  A    between atoms: _114  and  _115
REMARK   48  A    between atoms: _120  and  _121
REMARK   49  A    between atoms: _123  and  _125
REMARK   50  A    between atoms: _125  and  _126
REMARK   51  A    between atoms: _128  and  _130
REMARK   52  A    between atoms: _130  and  _131
REMARK   53  A    between atoms: _130  and  _133
REMARK   54  A    between atoms: _133  and  _134
REMARK   55  A    between atoms: _137  and  _139
REMARK   56  A    between atoms: _139  and  _140
REMARK   57  A    between atoms: _139  and  _142
REMARK   58  A    between atoms: _145  and  _147
REMARK   59  A    between atoms: _147  and  _148
REMARK   60  A    between atoms: _147  and  _150
REMARK   61  A    between atoms: _150  and  _151
REMARK   62  A    between atoms: _151  and  _152
REMARK   63  A    between atoms: _152  and  _153
REMARK   64  A    between atoms: _153  and  _154
REMARK   65  A    between atoms: _158  and  _160
REMARK   66  A    between atoms: _160  and  _161
REMARK   67  A    between atoms: _163  and  _165
REMARK   68  A    between atoms: _165  and  _166
REMARK   69  A    between atoms: _165  and  _168
REMARK   70  A    between atoms: _168  and  _169
REMARK   71  A    between atoms: _169  and  _170
REMARK   72  A    between atoms: _173  and  _175
REMARK   73  A    between atoms: _175  and  _176
REMARK   74  A    between atoms: _175  and  _178
REMARK   75  A    between atoms: _178  and  _179
REMARK   76  A    between atoms: _182  and  _184
REMARK   77  A    between atoms: _184  and  _185
REMARK   78  A    between atoms: _184  and  _187
REMARK   79  A    between atoms: _187  and  _188
REMARK   80  A    between atoms: _192  and  _193
REMARK   81  A    between atoms: _198  and  _200
REMARK   82  A    between atoms: _200  and  _201
REMARK   83  A    between atoms: _203  and  _205
REMARK   84  A    between atoms: _205  and  _206
REMARK   85  A    between atoms: _205  and  _208
REMARK   86  A    between atoms: _208  and  _209
REMARK   87  A    between atoms: _211  and  _213
REMARK   88  A    between atoms: _213  and  _214
REMARK   89  A    between atoms: _213  and  _216
REMARK   90  A    between atoms: _216  and  _217
REMARK   91  A    between atoms: _222  and  _224
REMARK   92  A    between atoms: _224  and  _225
REMARK   93  A    between atoms: _224  and  _227
REMARK   94  A    between atoms: _227  and  _228
REMARK   95  A    between atoms: _231  and  _233
REMARK   96  A    between atoms: _233  and  _234
REMARK   97  A    between atoms: _233  and  _236
REMARK   98  A    between atoms: _236  and  _237
REMARK   99  A    between atoms: _242  and  _243
REMARK  100  A    between atoms: _245  and  _247
REMARK  101  A    between atoms: _247  and  _248
REMARK  102  A    between atoms: _247  and  _250
REMARK  103  A    between atoms: _250  and  _251
REMARK  104  A    between atoms: _251  and  _252
REMARK  105  A    between atoms: _255  and  _257
REMARK  106  A    between atoms: _257  and  _258
REMARK  107  A    between atoms: _257  and  _260
REMARK  108  A    between atoms: _260  and  _261
REMARK  109  A    between atoms: _264  and  _266
REMARK  110  A    between atoms: _266  and  _267
REMARK  111  A    between atoms: _270  and  _272
REMARK  112  A    between atoms: _272  and  _273
REMARK  113  A    between atoms: _272  and  _275
REMARK  114  A    between atoms: _278  and  _280
REMARK  115  A    between atoms: _280  and  _281
REMARK  116  A    between atoms: _280  and  _283
REMARK  117  A    between atoms: _283  and  _284
REMARK  118  A    between atoms: _289  and  _291
REMARK  119  A    between atoms: _291  and  _292
REMARK  120  A    between atoms: _291  and  _294
REMARK  121  A    between atoms: _294  and  _295
REMARK  122  A    between atoms: _295  and  _296
REMARK  123  A    between atoms: _298  and  _300
REMARK  124  A    between atoms: _300  and  _301
REMARK  125  A    between atoms: _303  and  _305
REMARK  126  A    between atoms: _305  and  _306
REMARK  127  A    between atoms: _305  and  _308
REMARK  128  A    between atoms: _308  and  _309
REMARK  129  A    between atoms: _311  and  _313
REMARK  130  A    between atoms: _313  and  _314
REMARK  131  A    between atoms: _317  and  _319
REMARK  132  A    between atoms: _319  and  _320
REMARK  133  A    between atoms: _323  and  _325
REMARK  134  A    between atoms: _325  and  _326
REMARK  135  A    between atoms: _325  and  _328
REMARK  136  A    between atoms: _328  and  _329
REMARK  137  A    between atoms: _332  and  _334
REMARK  138  A    between atoms: _334  and  _335
REMARK  139  A    between atoms: _334  and  _337
REMARK  140  A    between atoms: _337  and  _338
REMARK  141  A    between atoms: _341  and  _343
REMARK  142  A    between atoms: _343  and  _344
REMARK  143  A    between atoms: _343  and  _346
REMARK  144  A    between atoms: _346  and  _347
REMARK  145  A    between atoms: _350  and  _352
REMARK  146  A    between atoms: _352  and  _353
REMARK  147  A    between atoms: _352  and  _355
REMARK  148  A    between atoms: _355  and  _356
REMARK  149  A    between atoms: _362  and  _364
REMARK  150  A    between atoms: _364  and  _365
REMARK  151  A    between atoms: _368  and  _369
REMARK  152  A    between atoms: _374  and  _376
REMARK  153  A    between atoms: _376  and  _377
REMARK  154  A    between atoms: _376  and  _379
REMARK  155  A    between atoms: _379  and  _380
REMARK  156  A    between atoms: _385  and  _386
REMARK  157  A    between atoms: _388  and  _390
REMARK  158  A    between atoms: _390  and  _391
REMARK  159  A    between atoms: _390  and  _393
REMARK  160  A    between atoms: _393  and  _394
REMARK  161  A    between atoms: _394  and  _395
REMARK  162  A    between atoms: _398  and  _400
REMARK  163  A    between atoms: _400  and  _401
REMARK  164  A    between atoms: _400  and  _403
REMARK  165  A    between atoms: _406  and  _408
REMARK  166  A    between atoms: _408  and  _409
REMARK  167  A    between atoms: _408  and  _411
REMARK  168  A    between atoms: _411  and  _412
REMARK  169  A    between atoms: _415  and  _417
REMARK  170  A    between atoms: _417  and  _418
REMARK  171  A    between atoms: _417  and  _420
REMARK  172  A    between atoms: _420  and  _421
REMARK  173  A    between atoms: _421  and  _422
REMARK  174  A    between atoms: _422  and  _423
REMARK  175  A    between atoms: _432  and  _434
REMARK  176  A    between atoms: _434  and  _435
REMARK  177  A    between atoms: _434  and  _437
REMARK  178  A    between atoms: _437  and  _438
REMARK  179  A    between atoms: _443  and  _445
REMARK  180  A    between atoms: _445  and  _446
REMARK  181  A    between atoms: _445  and  _448
REMARK  182  A    between atoms: _448  and  _449
REMARK  183  A    between atoms: _451  and  _453
REMARK  184  A    between atoms: _453  and  _454
REMARK  185  A    between atoms: _453  and  _456
REMARK  186  A    between atoms: _456  and  _457
REMARK  187  A    between atoms: _460  and  _462
REMARK  188  A    between atoms: _462  and  _463
REMARK  189  A    between atoms: _465  and  _467
REMARK  190  A    between atoms: _467  and  _468
REMARK  191  A    between atoms: _467  and  _470
REMARK  192  A    between atoms: _473  and  _475
REMARK  193  A    between atoms: _475  and  _476
REMARK  194  A    between atoms: _475  and  _478
REMARK  195  A    between atoms: _478  and  _479
REMARK  196  A    between atoms: _482  and  _484
REMARK  197  A    between atoms: _484  and  _485
REMARK  198  A    between atoms: _484  and  _487
REMARK  199  A    between atoms: _487  and  _488
REMARK  200  A    between atoms: _492  and  _493
REMARK  201  A    between atoms: _498  and  _500
REMARK  202  A    between atoms: _500  and  _501
REMARK  203  A    between atoms: _503  and  _505
REMARK  204  A    between atoms: _505  and  _506
REMARK  205  A    between atoms: _505  and  _508
REMARK  206  A    between atoms: _511  and  _513
REMARK  207  A    between atoms: _513  and  _514
REMARK  208  A    between atoms: _513  and  _516
REMARK  209  A    between atoms: _516  and  _517
REMARK  210  A    between atoms: _517  and  _518
REMARK  211  A    between atoms: _518  and  _519
REMARK  212  A    between atoms: _529  and  _530
REMARK  213  A    between atoms: _535  and  _537
REMARK  214  A    between atoms: _537  and  _538
REMARK  215  A    between atoms: _537  and  _540
REMARK  216  A    between atoms: _540  and  _541
REMARK  217  A    between atoms: _546  and  _548
REMARK  218  A    between atoms: _548  and  _549
REMARK  219  A    between atoms: _548  and  _551
REMARK  220  A    between atoms: _551  and  _552
REMARK  221  A    between atoms: _554  and  _556
REMARK  222  A    between atoms: _556  and  _557
REMARK  223  A    between atoms: _556  and  _559
REMARK  224  A    between atoms: _559  and  _560
REMARK  225  A    between atoms: _562  and  _564
REMARK  226  A    between atoms: _564  and  _565
REMARK  227  A    between atoms: _564  and  _567
REMARK  228  A    between atoms: _567  and  _568
REMARK  229  A    between atoms: _571  and  _573
REMARK  230  A    between atoms: _573  and  _574
REMARK  231  A    between atoms: _573  and  _576
REMARK  232  A    between atoms: _576  and  _577
REMARK  233  A    between atoms: _583  and  _585
REMARK  234  A    between atoms: _585  and  _586
REMARK  235  A    between atoms: _585  and  _588
REMARK  236  A    between atoms: _588  and  _589
REMARK  237  A    between atoms: _594  and  _596
REMARK  238  A    between atoms: _596  and  _597
REMARK  239  A    between atoms: _599  and  _601
REMARK  240  A    between atoms: _601  and  _602
REMARK  241  A    between atoms: _601  and  _604
REMARK  242  A    between atoms: _604  and  _605
REMARK  243  A    between atoms: _605  and  _606
REMARK  244  A    between atoms: _606  and  _607
REMARK  245  A    between atoms: _616  and  _618
REMARK  246  A    between atoms: _618  and  _619
REMARK  247  A    between atoms: _618  and  _621
REMARK  248  A    between atoms: _621  and  _622
REMARK  249  A    between atoms: _625  and  _627
REMARK  250  A    between atoms: _627  and  _628
REMARK  251  A    between atoms: _627  and  _630
REMARK  252  A    between atoms: _630  and  _631
REMARK                            x       y       z     vdW  Elec       q    Type
REMARK                         _______ _______ _______ _____ _____    ______ ____
ROOT
ATOM      1  CA  LEU A   1      24.307 -45.276  16.383  0.00  0.00    +0.133 C 
ENDROOT
BRANCH   1   2
ATOM      2  N   LEU A   1      23.152 -45.392  17.255  0.00  0.00    -0.239 NA
ATOM      3  H   LEU A   1      22.234 -45.055  16.901  0.00  0.00    +0.142 HD
ENDBRANCH   1   2
BRANCH   1   4
ATOM      4  C   LEU A   1      24.337 -43.976  15.569  0.00  0.00    +0.224 C 
ATOM      5  O   LEU A   1      23.397 -43.190  15.574  0.00  0.00    -0.287 OA
ENDBRANCH   1   4
BRANCH   1   6
ATOM      6  CB  LEU A   1      24.409 -46.447  15.413  0.00  0.00    +0.025 C 
BRANCH   6   7
ATOM      7  CG  LEU A   1      23.384 -46.466  14.293  0.00  0.00    +0.002 C 
ATOM      8  CD2 LEU A   1      22.031 -46.982  14.801  0.00  0.00    +0.000 C 
ATOM      9  CD1 LEU A   1      23.928 -47.297  13.135  0.00  0.00    +0.000 C 
ENDBRANCH   6   7
ENDBRANCH   1   6
TORSDOF 4
REMARK  Name = ../refined-set-2016/2wr8/2wr8_pocket.pdb
REMARK  252 active torsions:
REMARK  status: ('A' for Active; 'I' for Inactive)
REMARK    1  A    between atoms: _1  and  _3
REMARK    2  A    between atoms: _3  and  _4
REMARK    3  A    between atoms: _3  and  _6
REMARK    4  A    between atoms: _6  and  _7
REMARK    5  A    between atoms: _13  and  _15
REMARK    6  A    between atoms: _15  and  _16
REMARK    7  A    between atoms: _15  and  _18
REMARK    8  A    between atoms: _18  and  _19
REMARK    9  A    between atoms: _24  and  _25
REMARK   10  A    between atoms: _27  and  _29
REMARK   11  A    between atoms: _29  and  _30
REMARK   12  A    between atoms: _29  and  _32
REMARK   13  A    between atoms: _32  and  _33
REMARK   14  A    between atoms: _36  and  _38
REMARK   15  A    between atoms: _38  and  _39
REMARK   16  A    between atoms: _38  and  _41
REMARK   17  A    between atoms: _41  and  _42
REMARK   18  A    between atoms: _45  and  _47
REMARK   19  A    between atoms: _47  and  _48
REMARK   20  A    between atoms: _47  and  _50
REMARK   21  A    between atoms: _50  and  _51
REMARK   22  A    between atoms: _57  and  _59
REMARK   23  A    between atoms: _59  and  _60
REMARK   24  A    between atoms: _62  and  _64
REMARK   25  A    between atoms: _64  and  _65
REMARK   26  A    between atoms: _64  and  _67
REMARK   27  A    between atoms: _67  and  _68
REMARK   28  A    between atoms: _73  and  _75
REMARK   29  A    between atoms: _75  and  _76
REMARK   30  A    between atoms: _75  and  _78
REMARK   31  A    between atoms: _81  and  _83
REMARK   32  A    between atoms: _83  and  _84
REMARK   33  A    between atoms: _83  and  _86
REMARK   34  A    between atoms: _86  and  _87
REMARK   35  A    between atoms: _90  and  _92
REMARK   36  A    between atoms: _92  and  _93
REMARK   37  A    between atoms: _92  and  _95
REMARK   38  A    between atoms: _95  and  _96
REMARK   39  A    between atoms: _96  and  _97
REMARK   40  A    between atoms: _100  and  _102
REMARK   41  A    between atoms: _102  and  _103
REMARK   42  A    between atoms: _102  and  _105
REMARK   43  A    between atoms: _105  and  _106
REMARK   44  A    between atoms: _109  and  _111
REMARK   45  A    between atoms: _111  and  _112
REMARK   46  A    between atoms: _111  and  _114
REMARK   47  A    between atoms: _114  and  _115
REMARK   48  A    between atoms: _120  and  _121
REMARK   49  A    between atoms: _123  and  _125
REMARK   50  A    between atoms: _125  and  _126
REMARK   51  A    between atoms: _128  and  _130
REMARK   52  A    between atoms: _130  and  _131
REMARK   53  A    between atoms: _130  and  _133
REMARK   54  A    between atoms: _133  and  _134
REMARK   55  A    between atoms: _137  and  _139
REMARK   56  A    between atoms: _139  and  _140
REMARK   57  A    between atoms: _139  and  _142
REMARK   58  A    between atoms: _145  and  _147
REMARK   59  A    between atoms: _147  and  _148
REMARK   60  A    between atoms: _147  and  _150
REMARK   61  A    between atoms: _150  and  _151
REMARK   62  A    between atoms: _151  and  _152
REMARK   63  A    between atoms: _152  and  _153
REMARK   64  A    between atoms: _153  and  _154
REMARK   65  A    between atoms: _158  and  _160
REMARK   66  A    between atoms: _160  and  _161
REMARK   67  A    between atoms: _163  and  _165
REMARK   68  A    between atoms: _165  and  _166
REMARK   69  A    between atoms: _165  and  _168
REMARK   70  A    between atoms: _168  and  _169
REMARK   71  A    between atoms: _169  and  _170
REMARK   72  A    between atoms: _173  and  _175
REMARK   73  A    between atoms: _175  and  _176
REMARK   74  A    between atoms: _175  and  _178
REMARK   75  A    between atoms: _178  and  _179
REMARK   76  A    between atoms: _182  and  _184
REMARK   77  A    between atoms: _184  and  _185
REMARK   78  A    between atoms: _184  and  _187
REMARK   79  A    between atoms: _187  and  _188
REMARK   80  A    between atoms: _192  and  _193
REMARK   81  A    between atoms: _198  and  _200
REMARK   82  A    between atoms: _200  and  _201
REMARK   83  A    between atoms: _203  and  _205
REMARK   84  A    between atoms: _205  and  _206
REMARK   85  A    between atoms: _205  and  _208
REMARK   86  A    between atoms: _208  and  _209
REMARK   87  A    between atoms: _211  and  _213
REMARK   88  A    between atoms: _213  and  _214
REMARK   89  A    between atoms: _213  and  _216
REMARK   90  A    between atoms: _216  and  _217
REMARK   91  A    between atoms: _222  and  _224
REMARK   92  A    between atoms: _224  and  _225
REMARK   93  A    between atoms: _224  and  _227
REMARK   94  A    between atoms: _227  and  _228
REMARK   95  A    between atoms: _231  and  _233
REMARK   96  A    between atoms: _233  and  _234
REMARK   97  A    between atoms: _233  and  _236
REMARK   98  A    between atoms: _236  and  _237
REMARK   99  A    between atoms: _242  and  _243
REMARK  100  A    between atoms: _245  and  _247
REMARK  101  A    between atoms: _247  and  _248
REMARK  102  A    between atoms: _247  and  _250
REMARK  103  A    between atoms: _250  and  _251
REMARK  104  A    between atoms: _251  and  _252
REMARK  105  A    between atoms: _255  and  _257
REMARK  106  A    between atoms: _257  and  _258
REMARK  107  A    between atoms: _257  and  _260
REMARK  108  A    between atoms: _260  and  _261
REMARK  109  A    between atoms: _264  and  _266
REMARK  110  A    between atoms: _266  and  _267
REMARK  111  A    between atoms: _270  and  _272
REMARK  112  A    between atoms: _272  and  _273
REMARK  113  A    between atoms: _272  and  _275
REMARK  114  A    between atoms: _278  and  _280
REMARK  115  A    between atoms: _280  and  _281
REMARK  116  A    between atoms: _280  and  _283
REMARK  117  A    between atoms: _283  and  _284
REMARK  118  A    between atoms: _289  and  _291
REMARK  119  A    between atoms: _291  and  _292
REMARK  120  A    between atoms: _291  and  _294
REMARK  121  A    between atoms: _294  and  _295
REMARK  122  A    between atoms: _295  and  _296
REMARK  123  A    between atoms: _298  and  _300
REMARK  124  A    between atoms: _300  and  _301
REMARK  125  A    between atoms: _303  and  _305
REMARK  126  A    between atoms: _305  and  _306
REMARK  127  A    between atoms: _305  and  _308
REMARK  128  A    between atoms: _308  and  _309
REMARK  129  A    between atoms: _311  and  _313
REMARK  130  A    between atoms: _313  and  _314
REMARK  131  A    between atoms: _317  and  _319
REMARK  132  A    between atoms: _319  and  _320
REMARK  133  A    between atoms: _323  and  _325
REMARK  134  A    between atoms: _325  and  _326
REMARK  135  A    between atoms: _325  and  _328
REMARK  136  A    between atoms: _328  and  _329
REMARK  137  A    between atoms: _332  and  _334
REMARK  138  A    between atoms: _334  and  _335
REMARK  139  A    between atoms: _334  and  _337
REMARK  140  A    between atoms: _337  and  _338
REMARK  141  A    between atoms: _341  and  _343
REMARK  142  A    between atoms: _343  and  _344
REMARK  143  A    between atoms: _343  and  _346
REMARK  144  A    between atoms: _346  and  _347
REMARK  145  A    between atoms: _350  and  _352
REMARK  146  A    between atoms: _352  and  _353
REMARK  147  A    between atoms: _352  and  _355
REMARK  148  A    between atoms: _355  and  _356
REMARK  149  A    between atoms: _362  and  _364
REMARK  150  A    between atoms: _364  and  _365
REMARK  151  A    between atoms: _368  and  _369
REMARK  152  A    between atoms: _374  and  _376
REMARK  153  A    between atoms: _376  and  _377
REMARK  154  A    between atoms: _376  and  _379
REMARK  155  A    between atoms: _379  and  _380
REMARK  156  A    between atoms: _385  and  _386
REMARK  157  A    between atoms: _388  and  _390
REMARK  158  A    between atoms: _390  and  _391
REMARK  159  A    between atoms: _390  and  _393
REMARK  160  A    between atoms: _393  and  _394
REMARK  161  A    between atoms: _394  and  _395
REMARK  162  A    between atoms: _398  and  _400
REMARK  163  A    between atoms: _400  and  _401
REMARK  164  A    between atoms: _400  and  _403
REMARK  165  A    between atoms: _406  and  _408
REMARK  166  A    between atoms: _408  and  _409
REMARK  167  A    between atoms: _408  and  _411
REMARK  168  A    between atoms: _411  and  _412
REMARK  169  A    between atoms: _415  and  _417
REMARK  170  A    between atoms: _417  and  _418
REMARK  171  A    between atoms: _417  and  _420
REMARK  172  A    between atoms: _420  and  _421
REMARK  173  A    between atoms: _421  and  _422
REMARK  174  A    between atoms: _422  and  _423
REMARK  175  A    between atoms: _432  and  _434
REMARK  176  A    between atoms: _434  and  _435
REMARK  177  A    between atoms: _434  and  _437
REMARK  178  A    between atoms: _437  and  _438
REMARK  179  A    between atoms: _443  and  _445
REMARK  180  A    between atoms: _445  and  _446
REMARK  181  A    between atoms: _445  and  _448
REMARK  182  A    between atoms: _448  and  _449
REMARK  183  A    between atoms: _451  and  _453
REMARK  184  A    between atoms: _453  and  _454
REMARK  185  A    between atoms: _453  and  _456
REMARK  186  A    between atoms: _456  and  _457
REMARK  187  A    between atoms: _460  and  _462
REMARK  188  A    between atoms: _462  and  _463
REMARK  189  A    between atoms: _465  and  _467
REMARK  190  A    between atoms: _467  and  _468
REMARK  191  A    between atoms: _467  and  _470
REMARK  192  A    between atoms: _473  and  _475
REMARK  193  A    between atoms: _475  and  _476
REMARK  194  A    between atoms: _475  and  _478
REMARK  195  A    between atoms: _478  and  _479
REMARK  196  A    between atoms: _482  and  _484
REMARK  197  A    between atoms: _484  and  _485
REMARK  198  A    between atoms: _484  and  _487
REMARK  199  A    between atoms: _487  and  _488
REMARK  200  A    between atoms: _492  and  _493
REMARK  201  A    between atoms: _498  and  _500
REMARK  202  A    between atoms: _500  and  _501
REMARK  203  A    between atoms: _503  and  _505
REMARK  204  A    between atoms: _505  and  _506
REMARK  205  A    between atoms: _505  and  _508
REMARK  206  A    between atoms: _511  and  _513
REMARK  207  A    between atoms: _513  and  _514
REMARK  208  A    between atoms: _513  and  _516
REMARK  209  A    between atoms: _516  and  _517
REMARK  210  A    between atoms: _517  and  _518
REMARK  211  A    between atoms: _518  and  _519
REMARK  212  A    between atoms: _529  and  _530
REMARK  213  A    between atoms: _535  and  _537
REMARK  214  A    between atoms: _537  and  _538
REMARK  215  A    between atoms: _537  and  _540
REMARK  216  A    between atoms: _540  and  _541
REMARK  217  A    between atoms: _546  and  _548
REMARK  218  A    between atoms: _548  and  _549
REMARK  219  A    between atoms: _548  and  _551
REMARK  220  A    between atoms: _551  and  _552
REMARK  221  A    between atoms: _554  and  _556
REMARK  222  A    between atoms: _556  and  _557
REMARK  223  A    between atoms: _556  and  _559
REMARK  224  A    between atoms: _559  and  _560
REMARK  225  A    between atoms: _562  and  _564
REMARK  226  A    between atoms: _564  and  _565
REMARK  227  A    between atoms: _564  and  _567
REMARK  228  A    between atoms: _567  and  _568
REMARK  229  A    between atoms: _571  and  _573
REMARK  230  A    between atoms: _573  and  _574
REMARK  231  A    between atoms: _573  and  _576
REMARK  232  A    between atoms: _576  and  _577
REMARK  233  A    between atoms: _583  and  _585
REMARK  234  A    between atoms: _585  and  _586
REMARK  235  A    between atoms: _585  and  _588
REMARK  236  A    between atoms: _588  and  _589
REMARK  237  A    between atoms: _594  and  _596
REMARK  238  A    between atoms: _596  and  _597
REMARK  239  A    between atoms: _599  and  _601
REMARK  240  A    between atoms: _601  and  _602
REMARK  241  A    between atoms: _601  and  _604
REMARK  242  A    between atoms: _604  and  _605
REMARK  243  A    between atoms: _605  and  _606
REMARK  244  A    between atoms: _606  and  _607
REMARK  245  A    between atoms: _616  and  _618
REMARK  246  A    between atoms: _618  and  _619
REMARK  247  A    between atoms: _618  and  _621
REMARK  248  A    between atoms: _621  and  _622
REMARK  249  A    between atoms: _625  and  _627
REMARK  250  A    between atoms: _627  and  _628
REMARK  251  A    between atoms: _627  and  _630
REMARK  252  A    between atoms: _630  and  _631
REMARK                            x       y       z     vdW  Elec       q    Type
REMARK                         _______ _______ _______ _____ _____    ______ ____
ROOT
ATOM      1  CA  HIS A   5      21.753 -37.254   2.487  0.00  0.00    +0.155 C 
ENDROOT
BRANCH   1   3
ATOM      2  C   SER A   4      21.647 -39.622   1.752  0.00  0.00    +0.243 C 
ATOM      3  N   HIS A   5      21.911 -38.714   2.673  0.00  0.00    -0.297 N 
ATOM      4  H   HIS A   5      22.255 -39.048   3.596  0.00  0.00    +0.150 HD
ATOM      5  O   SER A   4      21.478 -39.353   0.555  0.00  0.00    -0.273 OA
BRANCH   2   6
ATOM      6  CA  SER A   4      21.593 -41.061   2.220  0.00  0.00    +0.178 C 
BRANCH   6   9
ATOM      7  C   GLY A   3      22.578 -41.924   4.290  0.00  0.00    +0.243 C 
ATOM      8  O   GLY A   3      23.571 -42.392   3.710  0.00  0.00    -0.273 OA
ATOM      9  N   SER A   4      21.642 -41.202   3.684  0.00  0.00    -0.295 N 
ATOM     10  H   SER A   4      20.922 -40.722   4.261  0.00  0.00    +0.150 HD
BRANCH   7  11
ATOM     11  CA  GLY A   3      22.440 -42.086   5.789  0.00  0.00    +0.176 C 
BRANCH  11  13
ATOM     12  C   PRO A   2      24.697 -41.296   6.354  0.00  0.00    +0.241 C 
ATOM     13  N   GLY A   3      23.752 -42.240   6.420  0.00  0.00    -0.295 N 
ATOM     14  H   GLY A   3      23.957 -43.117   6.940  0.00  0.00    +0.150 HD
ATOM     15  O   PRO A   2      24.507 -40.161   5.912  0.00  0.00    -0.273 OA
BRANCH  12  22
ATOM     16  C   LEU A   1      25.609 -42.265   9.180  0.00  0.00    +0.241 C 
ATOM     17  O   LEU A   1      25.129 -41.139   9.436  0.00  0.00    -0.273 OA
ATOM     18  N   PRO A   2      26.136 -42.585   7.989  0.00  0.00    -0.272 N 
ATOM     19  CD  PRO A   2      26.849 -43.833   7.639  0.00  0.00    +0.094 C 
ATOM     20  CG  PRO A   2      27.166 -43.674   6.190  0.00  0.00    +0.024 C 
ATOM     21  CB  PRO A   2      26.912 -42.301   5.765  0.00  0.00    +0.031 C 
ATOM     22  CA  PRO A   2      26.077 -41.636   6.876  0.00  0.00    +0.152 C 
BRANCH  16  23
ATOM     23  CA  LEU A   1      25.592 -43.366  10.208  0.00  0.00    +0.145 C 
BRANCH  23  24
ATOM     24  N   LEU A   1      25.421 -42.815  11.536  0.00  0.00    -0.238 NA
ATOM     25  H   LEU A   1      24.889 -41.928  11.645  0.00  0.00    +0.142 HD
ENDBRANCH  23  24
BRANCH  23  26
ATOM     26  CB  LEU A   1      24.512 -44.409   9.834  0.00  0.00    +0.026 C 
BRANCH  26  27
ATOM     27  CG  LEU A   1      23.080 -44.661  10.309  0.00  0.00    +0.002 C 
ATOM     28  CD2 LEU A   1      22.402 -43.622  11.132  0.00  0.00    +0.000 C 
ATOM     29  CD1 LEU A   1      22.215 -45.042   9.038  0.00  0.00    +0.000 C 
ENDBRANCH  26  27
ENDBRANCH  23  26
ENDBRANCH  16  23
ENDBRANCH  12  22
ENDBRANCH  11  13
ENDBRANCH   7  11
ENDBRANCH   6   9
BRANCH   6  30
ATOM     30  CB  SER A   4      20.300 -41.677   1.681  0.00  0.00    +0.166 C 
BRANCH  30  31
ATOM     31  OG  SER A   4      19.173 -40.956   2.153  0.00  0.00    -0.380 OA
ATOM     32  H   SER A   4      19.156 -40.984   3.142  0.00  0.00    +0.211 HD
ENDBRANCH  30  31
ENDBRANCH   6  30
ENDBRANCH   2   6
ENDBRANCH   1   3
BRANCH   1  33
ATOM     33  C   HIS A   5      23.036 -36.491   2.505  0.00  0.00    +0.241 C 
ATOM     34  N   ASP A   6      24.140 -37.201   2.627  0.00  0.00    -0.297 N 
ATOM     35  H   ASP A   6      24.082 -38.236   2.709  0.00  0.00    +0.150 HD
ATOM     36  O   HIS A   5      22.997 -35.272   2.459  0.00  0.00    -0.273 OA
BRANCH  34  37
ATOM     37  CA  ASP A   6      25.452 -36.539   2.648  0.00  0.00    +0.160 C 
BRANCH  37  38
ATOM     38  C   ASP A   6      25.666 -35.616   3.851  0.00  0.00    +0.241 C 
ATOM     39  N   TYR A   7      24.886 -35.828   4.912  0.00  0.00    -0.298 N 
ATOM     40  H   TYR A   7      24.073 -36.468   4.810  0.00  0.00    +0.150 HD
ATOM     41  O   ASP A   6      26.563 -34.750   3.821  0.00  0.00    -0.273 OA
BRANCH  39  42
ATOM     42  CA  TYR A   7      25.123 -35.199   6.219  0.00  0.00    +0.141 C 
BRANCH  42  43
ATOM     43  C   TYR A   7      25.550 -36.282   7.235  0.00  0.00    +0.227 C 
ATOM     44  O   TYR A   7      26.270 -37.254   6.846  0.00  0.00    -0.286 OA
ENDBRANCH  42  43
BRANCH  42  45
ATOM     45  CB  TYR A   7      23.934 -34.348   6.626  0.00  0.00    +0.054 C 
BRANCH  45  46
ATOM     46  CG  TYR A   7      23.734 -33.069   5.811  0.00  0.00    -0.020 A 
ATOM     47  CD2 TYR A   7      24.499 -31.939   6.034  0.00  0.00    -0.001 A 
ATOM     48  CE2 TYR A   7      24.305 -30.784   5.311  0.00  0.00    +0.036 A 
ATOM     49  CZ  TYR A   7      23.350 -30.739   4.321  0.00  0.00    +0.134 A 
ATOM     50  CE1 TYR A   7      22.581 -31.863   4.075  0.00  0.00    +0.036 A 
ATOM     51  CD1 TYR A   7      22.799 -33.010   4.802  0.00  0.00    -0.001 A 
BRANCH  49  52
ATOM     52  OH  TYR A   7      23.116 -29.569   3.592  0.00  0.00    -0.506 OA
ATOM     53  HH  TYR A   7      23.250 -29.750   2.628  0.00  0.00    +0.292 HD
ENDBRANCH  49  52
ENDBRANCH  45  46
ENDBRANCH  42  45
ENDBRANCH  39  42
ENDBRANCH  37  38
BRANCH  37  54
ATOM     54  CB  ASP A   6      25.708 -35.762   1.352  0.00  0.00    +0.143 C 
BRANCH  54  55
ATOM     55  CG  ASP A   6      25.639 -36.630   0.125  0.00  0.00    +0.367 C 
ATOM     56  OD2 ASP A   6      26.335 -37.674   0.110  0.00  0.00    -0.246 OA
ATOM     57  OD1 ASP A   6      24.900 -36.267  -0.837  0.00  0.00    -0.246 OA
ENDBRANCH  54  55
ENDBRANCH  37  54
ENDBRANCH  34  37
ENDBRANCH   1  33
BRANCH   1  58
ATOM     58  CB  HIS A   5      20.895 -36.693   3.639  0.00  0.00    +0.076 C 
BRANCH  58  59
ATOM     59  CG  HIS A   5      21.069 -37.440   4.920  0.00  0.00    +0.082 A 
ATOM     60  CD2 HIS A   5      20.206 -38.224   5.610  0.00  0.00    +0.115 A 
ATOM     61  NE2 HIS A   5      20.892 -38.739   6.673  0.00  0.00    -0.221 NA
ATOM     62  CE1 HIS A   5      22.145 -38.319   6.625  0.00  0.00    +0.199 A 
ATOM     63  ND1 HIS A   5      22.293 -37.561   5.555  0.00  0.00    -0.227 NA
ENDBRANCH  58  59
ENDBRANCH   1  58
TORSDOF 24
REMARK  Name = ../refined-set-2016/2wr8/2wr8_pocket.pdb
REMARK  252 active torsions:
REMARK  status: ('A' for Active; 'I' for Inactive)
REMARK    1  A    between atoms: _1  and  _3
REMARK    2  A    between atoms: _3  and  _4
REMARK    3  A    between atoms: _3  and  _6
REMARK    4  A    between atoms: _6  and  _7
REMARK    5  A    between atoms: _13  and  _15
REMARK    6  A    between atoms: _15  and  _16
REMARK    7  A    between atoms: _15  and  _18
REMARK    8  A    between atoms: _18  and  _19
REMARK    9  A    between atoms: _24  and  _25
REMARK   10  A    between atoms: _27  and  _29
REMARK   11  A    between atoms: _29  and  _30
REMARK   12  A    between atoms: _29  and  _32
REMARK   13  A    between atoms: _32  and  _33
REMARK   14  A    between atoms: _36  and  _38
REMARK   15  A    between atoms: _38  and  _39
REMARK   16  A    between atoms: _38  and  _41
REMARK   17  A    between atoms: _41  and  _42
REMARK   18  A    between atoms: _45  and  _47
REMARK   19  A    between atoms: _47  and  _48
REMARK   20  A    between atoms: _47  and  _50
REMARK   21  A    between atoms: _50  and  _51
REMARK   22  A    between atoms: _57  and  _59
REMARK   23  A    between atoms: _59  and  _60
REMARK   24  A    between atoms: _62  and  _64
REMARK   25  A    between atoms: _64  and  _65
REMARK   26  A    between atoms: _64  and  _67
REMARK   27  A    between atoms: _67  and  _68
REMARK   28  A    between atoms: _73  and  _75
REMARK   29  A    between atoms: _75  and  _76
REMARK   30  A    between atoms: _75  and  _78
REMARK   31  A    between atoms: _81  and  _83
REMARK   32  A    between atoms: _83  and  _84
REMARK   33  A    between atoms: _83  and  _86
REMARK   34  A    between atoms: _86  and  _87
REMARK   35  A    between atoms: _90  and  _92
REMARK   36  A    between atoms: _92  and  _93
REMARK   37  A    between atoms: _92  and  _95
REMARK   38  A    between atoms: _95  and  _96
REMARK   39  A    between atoms: _96  and  _97
REMARK   40  A    between atoms: _100  and  _102
REMARK   41  A    between atoms: _102  and  _103
REMARK   42  A    between atoms: _102  and  _105
REMARK   43  A    between atoms: _105  and  _106
REMARK   44  A    between atoms: _109  and  _111
REMARK   45  A    between atoms: _111  and  _112
REMARK   46  A    between atoms: _111  and  _114
REMARK   47  A    between atoms: _114  and  _115
REMARK   48  A    between atoms: _120  and  _121
REMARK   49  A    between atoms: _123  and  _125
REMARK   50  A    between atoms: _125  and  _126
REMARK   51  A    between atoms: _128  and  _130
REMARK   52  A    between atoms: _130  and  _131
REMARK   53  A    between atoms: _130  and  _133
REMARK   54  A    between atoms: _133  and  _134
REMARK   55  A    between atoms: _137  and  _139
REMARK   56  A    between atoms: _139  and  _140
REMARK   57  A    between atoms: _139  and  _142
REMARK   58  A    between atoms: _145  and  _147
REMARK   59  A    between atoms: _147  and  _148
REMARK   60  A    between atoms: _147  and  _150
REMARK   61  A    between atoms: _150  and  _151
REMARK   62  A    between atoms: _151  and  _152
REMARK   63  A    between atoms: _152  and  _153
REMARK   64  A    between atoms: _153  and  _154
REMARK   65  A    between atoms: _158  and  _160
REMARK   66  A    between atoms: _160  and  _161
REMARK   67  A    between atoms: _163  and  _165
REMARK   68  A    between atoms: _165  and  _166
REMARK   69  A    between atoms: _165  and  _168
REMARK   70  A    between atoms: _168  and  _169
REMARK   71  A    between atoms: _169  and  _170
REMARK   72  A    between atoms: _173  and  _175
REMARK   73  A    between atoms: _175  and  _176
REMARK   74  A    between atoms: _175  and  _178
REMARK   75  A    between atoms: _178  and  _179
REMARK   76  A    between atoms: _182  and  _184
REMARK   77  A    between atoms: _184  and  _185
REMARK   78  A    between atoms: _184  and  _187
REMARK   79  A    between atoms: _187  and  _188
REMARK   80  A    between atoms: _192  and  _193
REMARK   81  A    between atoms: _198  and  _200
REMARK   82  A    between atoms: _200  and  _201
REMARK   83  A    between atoms: _203  and  _205
REMARK   84  A    between atoms: _205  and  _206
REMARK   85  A    between atoms: _205  and  _208
REMARK   86  A    between atoms: _208  and  _209
REMARK   87  A    between atoms: _211  and  _213
REMARK   88  A    between atoms: _213  and  _214
REMARK   89  A    between atoms: _213  and  _216
REMARK   90  A    between atoms: _216  and  _217
REMARK   91  A    between atoms: _222  and  _224
REMARK   92  A    between atoms: _224  and  _225
REMARK   93  A    between atoms: _224  and  _227
REMARK   94  A    between atoms: _227  and  _228
REMARK   95  A    between atoms: _231  and  _233
REMARK   96  A    between atoms: _233  and  _234
REMARK   97  A    between atoms: _233  and  _236
REMARK   98  A    between atoms: _236  and  _237
REMARK   99  A    between atoms: _242  and  _243
REMARK  100  A    between atoms: _245  and  _247
REMARK  101  A    between atoms: _247  and  _248
REMARK  102  A    between atoms: _247  and  _250
REMARK  103  A    between atoms: _250  and  _251
REMARK  104  A    between atoms: _251  and  _252
REMARK  105  A    between atoms: _255  and  _257
REMARK  106  A    between atoms: _257  and  _258
REMARK  107  A    between atoms: _257  and  _260
REMARK  108  A    between atoms: _260  and  _261
REMARK  109  A    between atoms: _264  and  _266
REMARK  110  A    between atoms: _266  and  _267
REMARK  111  A    between atoms: _270  and  _272
REMARK  112  A    between atoms: _272  and  _273
REMARK  113  A    between atoms: _272  and  _275
REMARK  114  A    between atoms: _278  and  _280
REMARK  115  A    between atoms: _280  and  _281
REMARK  116  A    between atoms: _280  and  _283
REMARK  117  A    between atoms: _283  and  _284
REMARK  118  A    between atoms: _289  and  _291
REMARK  119  A    between atoms: _291  and  _292
REMARK  120  A    between atoms: _291  and  _294
REMARK  121  A    between atoms: _294  and  _295
REMARK  122  A    between atoms: _295  and  _296
REMARK  123  A    between atoms: _298  and  _300
REMARK  124  A    between atoms: _300  and  _301
REMARK  125  A    between atoms: _303  and  _305
REMARK  126  A    between atoms: _305  and  _306
REMARK  127  A    between atoms: _305  and  _308
REMARK  128  A    between atoms: _308  and  _309
REMARK  129  A    between atoms: _311  and  _313
REMARK  130  A    between atoms: _313  and  _314
REMARK  131  A    between atoms: _317  and  _319
REMARK  132  A    between atoms: _319  and  _320
REMARK  133  A    between atoms: _323  and  _325
REMARK  134  A    between atoms: _325  and  _326
REMARK  135  A    between atoms: _325  and  _328
REMARK  136  A    between atoms: _328  and  _329
REMARK  137  A    between atoms: _332  and  _334
REMARK  138  A    between atoms: _334  and  _335
REMARK  139  A    between atoms: _334  and  _337
REMARK  140  A    between atoms: _337  and  _338
REMARK  141  A    between atoms: _341  and  _343
REMARK  142  A    between atoms: _343  and  _344
REMARK  143  A    between atoms: _343  and  _346
REMARK  144  A    between atoms: _346  and  _347
REMARK  145  A    between atoms: _350  and  _352
REMARK  146  A    between atoms: _352  and  _353
REMARK  147  A    between atoms: _352  and  _355
REMARK  148  A    between atoms: _355  and  _356
REMARK  149  A    between atoms: _362  and  _364
REMARK  150  A    between atoms: _364  and  _365
REMARK  151  A    between atoms: _368  and  _369
REMARK  152  A    between atoms: _374  and  _376
REMARK  153  A    between atoms: _376  and  _377
REMARK  154  A    between atoms: _376  and  _379
REMARK  155  A    between atoms: _379  and  _380
REMARK  156  A    between atoms: _385  and  _386
REMARK  157  A    between atoms: _388  and  _390
REMARK  158  A    between atoms: _390  and  _391
REMARK  159  A    between atoms: _390  and  _393
REMARK  160  A    between atoms: _393  and  _394
REMARK  161  A    between atoms: _394  and  _395
REMARK  162  A    between atoms: _398  and  _400
REMARK  163  A    between atoms: _400  and  _401
REMARK  164  A    between atoms: _400  and  _403
REMARK  165  A    between atoms: _406  and  _408
REMARK  166  A    between atoms: _408  and  _409
REMARK  167  A    between atoms: _408  and  _411
REMARK  168  A    between atoms: _411  and  _412
REMARK  169  A    between atoms: _415  and  _417
REMARK  170  A    between atoms: _417  and  _418
REMARK  171  A    between atoms: _417  and  _420
REMARK  172  A    between atoms: _420  and  _421
REMARK  173  A    between atoms: _421  and  _422
REMARK  174  A    between atoms: _422  and  _423
REMARK  175  A    between atoms: _432  and  _434
REMARK  176  A    between atoms: _434  and  _435
REMARK  177  A    between atoms: _434  and  _437
REMARK  178  A    between atoms: _437  and  _438
REMARK  179  A    between atoms: _443  and  _445
REMARK  180  A    between atoms: _445  and  _446
REMARK  181  A    between atoms: _445  and  _448
REMARK  182  A    between atoms: _448  and  _449
REMARK  183  A    between atoms: _451  and  _453
REMARK  184  A    between atoms: _453  and  _454
REMARK  185  A    between atoms: _453  and  _456
REMARK  186  A    between atoms: _456  and  _457
REMARK  187  A    between atoms: _460  and  _462
REMARK  188  A    between atoms: _462  and  _463
REMARK  189  A    between atoms: _465  and  _467
REMARK  190  A    between atoms: _467  and  _468
REMARK  191  A    between atoms: _467  and  _470
REMARK  192  A    between atoms: _473  and  _475
REMARK  193  A    between atoms: _475  and  _476
REMARK  194  A    between atoms: _475  and  _478
REMARK  195  A    between atoms: _478  and  _479
REMARK  196  A    between atoms: _482  and  _484
REMARK  197  A    between atoms: _484  and  _485
REMARK  198  A    between atoms: _484  and  _487
REMARK  199  A    between atoms: _487  and  _488
REMARK  200  A    between atoms: _492  and  _493
REMARK  201  A    between atoms: _498  and  _500
REMARK  202  A    between atoms: _500  and  _501
REMARK  203  A    between atoms: _503  and  _505
REMARK  204  A    between atoms: _505  and  _506
REMARK  205  A    between atoms: _505  and  _508
REMARK  206  A    between atoms: _511  and  _513
REMARK  207  A    between atoms: _513  and  _514
REMARK  208  A    between atoms: _513  and  _516
REMARK  209  A    between atoms: _516  and  _517
REMARK  210  A    between atoms: _517  and  _518
REMARK  211  A    between atoms: _518  and  _519
REMARK  212  A    between atoms: _529  and  _530
REMARK  213  A    between atoms: _535  and  _537
REMARK  214  A    between atoms: _537  and  _538
REMARK  215  A    between atoms: _537  and  _540
REMARK  216  A    between atoms: _540  and  _541
REMARK  217  A    between atoms: _546  and  _548
REMARK  218  A    between atoms: _548  and  _549
REMARK  219  A    between atoms: _548  and  _551
REMARK  220  A    between atoms: _551  and  _552
REMARK  221  A    between atoms: _554  and  _556
REMARK  222  A    between atoms: _556  and  _557
REMARK  223  A    between atoms: _556  and  _559
REMARK  224  A    between atoms: _559  and  _560
REMARK  225  A    between atoms: _562  and  _564
REMARK  226  A    between atoms: _564  and  _565
REMARK  227  A    between atoms: _564  and  _567
REMARK  228  A    between atoms: _567  and  _568
REMARK  229  A    between atoms: _571  and  _573
REMARK  230  A    between atoms: _573  and  _574
REMARK  231  A    between atoms: _573  and  _576
REMARK  232  A    between atoms: _576  and  _577
REMARK  233  A    between atoms: _583  and  _585
REMARK  234  A    between atoms: _585  and  _586
REMARK  235  A    between atoms: _585  and  _588
REMARK  236  A    between atoms: _588  and  _589
REMARK  237  A    between atoms: _594  and  _596
REMARK  238  A    between atoms: _596  and  _597
REMARK  239  A    between atoms: _599  and  _601
REMARK  240  A    between atoms: _601  and  _602
REMARK  241  A    between atoms: _601  and  _604
REMARK  242  A    between atoms: _604  and  _605
REMARK  243  A    between atoms: _605  and  _606
REMARK  244  A    between atoms: _606  and  _607
REMARK  245  A    between atoms: _616  and  _618
REMARK  246  A    between atoms: _618  and  _619
REMARK  247  A    between atoms: _618  and  _621
REMARK  248  A    between atoms: _621  and  _622
REMARK  249  A    between atoms: _625  and  _627
REMARK  250  A    between atoms: _627  and  _628
REMARK  251  A    between atoms: _627  and  _630
REMARK  252  A    between atoms: _630  and  _631
REMARK                            x       y       z     vdW  Elec       q    Type
REMARK                         _______ _______ _______ _____ _____    ______ ____
ROOT
ATOM      1  CA  ASN A   5      17.977 -49.152  15.652  0.00  0.00    +0.158 C 
ENDROOT
BRANCH   1   2
ATOM      2  C   ASN A   5      16.579 -49.590  16.088  0.00  0.00    +0.241 C 
ATOM      3  O   ASN A   5      16.367 -50.020  17.221  0.00  0.00    -0.273 OA
ATOM      4  N   MET A   6      15.649 -49.473  15.144  0.00  0.00    -0.297 N 
ATOM      5  H   MET A   6      15.963 -49.198  14.192  0.00  0.00    +0.150 HD
BRANCH   4   6
ATOM      6  CA  MET A   6      14.229 -49.700  15.342  0.00  0.00    +0.149 C 
BRANCH   6   7
ATOM      7  C   MET A   6      13.567 -48.786  16.411  0.00  0.00    +0.241 C 
ATOM      8  O   MET A   6      12.477 -49.075  16.922  0.00  0.00    -0.273 OA
ATOM      9  N   GLY A   7      14.202 -47.638  16.679  0.00  0.00    -0.295 N 
ATOM     10  H   GLY A   7      15.135 -47.465  16.253  0.00  0.00    +0.150 HD
BRANCH   9  11
ATOM     11  CA  GLY A   7      13.628 -46.633  17.542  0.00  0.00    +0.176 C 
BRANCH  11  12
ATOM     12  C   GLY A   7      13.830 -45.207  17.069  0.00  0.00    +0.243 C 
ATOM     13  N   SER A   8      13.599 -44.279  17.990  0.00  0.00    -0.295 N 
ATOM     14  H   SER A   8      13.378 -44.581  18.960  0.00  0.00    +0.150 HD
ATOM     15  O   GLY A   7      14.135 -44.927  15.887  0.00  0.00    -0.273 OA
BRANCH  13  16
ATOM     16  CA  SER A   8      13.644 -42.843  17.689  0.00  0.00    +0.178 C 
BRANCH  16  17
ATOM     17  C   SER A   8      14.757 -42.104  18.472  0.00  0.00    +0.243 C 
ATOM     18  O   SER A   8      14.638 -41.880  19.704  0.00  0.00    -0.273 OA
ATOM     19  N   ALA A   9      15.831 -41.729  17.784  0.00  0.00    -0.297 N 
ATOM     20  H   ALA A   9      15.942 -42.053  16.802  0.00  0.00    +0.150 HD
BRANCH  19  21
ATOM     21  CA  ALA A   9      16.857 -40.875  18.370  0.00  0.00    +0.149 C 
ATOM     22  CB  ALA A   9      17.940 -40.626  17.361  0.00  0.00    +0.031 C 
BRANCH  21  23
ATOM     23  C   ALA A   9      16.267 -39.527  18.848  0.00  0.00    +0.241 C 
ATOM     24  O   ALA A   9      16.644 -38.981  19.904  0.00  0.00    -0.273 OA
ATOM     25  N   ALA A  10      15.366 -38.970  18.039  0.00  0.00    -0.298 N 
ATOM     26  H   ALA A  10      15.071 -39.449  17.164  0.00  0.00    +0.150 HD
BRANCH  25  27
ATOM     27  CA  ALA A  10      14.796 -37.664  18.408  0.00  0.00    +0.137 C 
ATOM     28  CB  ALA A  10      13.808 -37.226  17.393  0.00  0.00    +0.030 C 
BRANCH  27  29
ATOM     29  C   ALA A  10      14.138 -37.728  19.791  0.00  0.00    +0.227 C 
ATOM     30  O   ALA A  10      14.321 -36.852  20.637  0.00  0.00    -0.286 OA
ENDBRANCH  27  29
ENDBRANCH  25  27
ENDBRANCH  21  23
ENDBRANCH  19  21
ENDBRANCH  16  17
BRANCH  16  31
ATOM     31  CB  SER A   8      12.295 -42.198  18.033  0.00  0.00    +0.166 C 
BRANCH  31  32
ATOM     32  OG  SER A   8      12.349 -40.775  17.917  0.00  0.00    -0.380 OA
ATOM     33  H   SER A   8      11.465 -40.393  18.145  0.00  0.00    +0.211 HD
ENDBRANCH  31  32
ENDBRANCH  16  31
ENDBRANCH  13  16
ENDBRANCH  11  12
ENDBRANCH   9  11
ENDBRANCH   6   7
BRANCH   6  34
ATOM     34  CB  MET A   6      14.038 -51.202  15.551  0.00  0.00    +0.041 C 
BRANCH  34  35
ATOM     35  CG  MET A   6      14.189 -51.948  14.186  0.00  0.00    +0.060 C 
BRANCH  35  36
ATOM     36  SD  MET A   6      13.699 -53.614  14.451  0.00  0.00    -0.139 S 
ATOM     37  CE  MET A   6      12.835 -53.926  12.929  0.00  0.00    +0.069 C 
ENDBRANCH  35  36
ENDBRANCH  34  35
ENDBRANCH   6  34
ENDBRANCH   4   6
ENDBRANCH   1   2
BRANCH   1  39
ATOM     38  C   VAL A   4      17.773 -46.873  16.434  0.00  0.00    +0.241 C 
ATOM     39  N   ASN A   5      18.430 -48.023  16.492  0.00  0.00    -0.297 N 
ATOM     40  H   ASN A   5      19.252 -48.129  17.120  0.00  0.00    +0.150 HD
ATOM     41  O   VAL A   4      16.844 -46.671  15.640  0.00  0.00    -0.273 OA
BRANCH  38  42
ATOM     42  CA  VAL A   4      18.244 -45.746  17.324  0.00  0.00    +0.149 C 
BRANCH  42  45
ATOM     43  C   ALA A   3      19.578 -44.123  16.045  0.00  0.00    +0.241 C 
ATOM     44  O   ALA A   3      20.615 -44.414  16.606  0.00  0.00    -0.273 OA
ATOM     45  N   VAL A   4      18.390 -44.608  16.419  0.00  0.00    -0.297 N 
ATOM     46  H   VAL A   4      17.530 -44.155  16.049  0.00  0.00    +0.150 HD
BRANCH  43  47
ATOM     47  CA  ALA A   3      19.577 -43.130  14.886  0.00  0.00    +0.149 C 
ATOM     48  CB  ALA A   3      19.517 -43.852  13.530  0.00  0.00    +0.031 C 
BRANCH  47  50
ATOM     49  C   ILE A   2      20.670 -40.960  14.552  0.00  0.00    +0.241 C 
ATOM     50  N   ALA A   3      20.735 -42.226  14.932  0.00  0.00    -0.297 N 
ATOM     51  H   ALA A   3      21.643 -42.597  15.278  0.00  0.00    +0.150 HD
ATOM     52  O   ILE A   2      19.619 -40.399  14.277  0.00  0.00    -0.273 OA
BRANCH  49  53
ATOM     53  CA  ILE A   2      21.984 -40.172  14.486  0.00  0.00    +0.148 C 
BRANCH  53  55
ATOM     54  C   GLU A   1      22.825 -39.835  12.244  0.00  0.00    +0.238 C 
ATOM     55  N   ILE A   2      21.980 -39.507  13.213  0.00  0.00    -0.297 N 
ATOM     56  H   ILE A   2      21.293 -38.744  13.045  0.00  0.00    +0.150 HD
ATOM     57  O   GLU A   1      23.807 -40.614  12.407  0.00  0.00    -0.274 OA
BRANCH  54  58
ATOM     58  CA  GLU A   1      22.589 -39.117  10.913  0.00  0.00    +0.145 C 
BRANCH  58  59
ATOM     59  N   GLU A   1      23.859 -38.645  10.351  0.00  0.00    -0.238 NA
ATOM     60  H   GLU A   1      24.561 -39.353  10.056  0.00  0.00    +0.142 HD
ENDBRANCH  58  59
BRANCH  58  61
ATOM     61  CB  GLU A   1      21.859 -40.027   9.907  0.00  0.00    +0.038 C 
BRANCH  61  62
ATOM     62  CG  GLU A   1      20.571 -40.574  10.433  0.00  0.00    +0.116 C 
BRANCH  62  63
ATOM     63  CD  GLU A   1      19.820 -41.461   9.444  0.00  0.00    +0.365 C 
ATOM     64  OE2 GLU A   1      19.172 -42.410   9.913  0.00  0.00    -0.246 OA
ATOM     65  OE1 GLU A   1      19.850 -41.198   8.228  0.00  0.00    -0.246 OA
ENDBRANCH  62  63
ENDBRANCH  61  62
ENDBRANCH  58  61
ENDBRANCH  54  58
ENDBRANCH  53  55
BRANCH  53  66
ATOM     66  CB  ILE A   2      22.091 -39.147  15.650  0.00  0.00    +0.027 C 
ATOM     67  CG2 ILE A   2      22.073 -39.882  16.964  0.00  0.00    +0.002 C 
BRANCH  66  68
ATOM     68  CG1 ILE A   2      23.306 -38.209  15.499  0.00  0.00    +0.002 C 
ATOM     69  CD1 ILE A   2      24.621 -38.915  15.304  0.00  0.00    +0.000 C 
ENDBRANCH  66  68
ENDBRANCH  53  66
ENDBRANCH  49  53
ENDBRANCH  47  50
ENDBRANCH  43  47
ENDBRANCH  42  45
BRANCH  42  70
ATOM     70  CB  VAL A   4      17.216 -45.499  18.411  0.00  0.00    +0.027 C 
ATOM     71  CG2 VAL A   4      17.634 -44.333  19.305  0.00  0.00    +0.002 C 
ATOM     72  CG1 VAL A   4      17.004 -46.768  19.287  0.00  0.00    +0.002 C 
ENDBRANCH  42  70
ENDBRANCH  38  42
ENDBRANCH   1  39
BRANCH   1  73
ATOM     73  CB  ASN A   5      18.937 -50.331  15.673  0.00  0.00    +0.114 C 
BRANCH  73  74
ATOM     74  CG  ASN A   5      18.495 -51.467  14.741  0.00  0.00    +0.222 C 
ATOM     75  ND2 ASN A   5      19.049 -52.691  14.956  0.00  0.00    -0.329 N 
ATOM     76 HD21 ASN A   5      19.729 -52.825  15.731  0.00  0.00    +0.145 HD
ATOM     77 HD22 ASN A   5      18.792 -53.493  14.345  0.00  0.00    +0.145 HD
ATOM     78  OD1 ASN A   5      17.680 -51.253  13.832  0.00  0.00    -0.275 OA
ENDBRANCH  73  74
ENDBRANCH   1  73
TORSDOF 33
REMARK  Name = ../refined-set-2016/2wr8/2wr8_pocket.pdb
REMARK  252 active torsions:
REMARK  status: ('A' for Active; 'I' for Inactive)
REMARK    1  A    between atoms: _1  and  _3
REMARK    2  A    between atoms: _3  and  _4
REMARK    3  A    between atoms: _3  and  _6
REMARK    4  A    between atoms: _6  and  _7
REMARK    5  A    between atoms: _13  and  _15
REMARK    6  A    between atoms: _15  and  _16
REMARK    7  A    between atoms: _15  and  _18
REMARK    8  A    between atoms: _18  and  _19
REMARK    9  A    between atoms: _24  and  _25
REMARK   10  A    between atoms: _27  and  _29
REMARK   11  A    between atoms: _29  and  _30
REMARK   12  A    between atoms: _29  and  _32
REMARK   13  A    between atoms: _32  and  _33
REMARK   14  A    between atoms: _36  and  _38
REMARK   15  A    between atoms: _38  and  _39
REMARK   16  A    between atoms: _38  and  _41
REMARK   17  A    between atoms: _41  and  _42
REMARK   18  A    between atoms: _45  and  _47
REMARK   19  A    between atoms: _47  and  _48
REMARK   20  A    between atoms: _47  and  _50
REMARK   21  A    between atoms: _50  and  _51
REMARK   22  A    between atoms: _57  and  _59
REMARK   23  A    between atoms: _59  and  _60
REMARK   24  A    between atoms: _62  and  _64
REMARK   25  A    between atoms: _64  and  _65
REMARK   26  A    between atoms: _64  and  _67
REMARK   27  A    between atoms: _67  and  _68
REMARK   28  A    between atoms: _73  and  _75
REMARK   29  A    between atoms: _75  and  _76
REMARK   30  A    between atoms: _75  and  _78
REMARK   31  A    between atoms: _81  and  _83
REMARK   32  A    between atoms: _83  and  _84
REMARK   33  A    between atoms: _83  and  _86
REMARK   34  A    between atoms: _86  and  _87
REMARK   35  A    between atoms: _90  and  _92
REMARK   36  A    between atoms: _92  and  _93
REMARK   37  A    between atoms: _92  and  _95
REMARK   38  A    between atoms: _95  and  _96
REMARK   39  A    between atoms: _96  and  _97
REMARK   40  A    between atoms: _100  and  _102
REMARK   41  A    between atoms: _102  and  _103
REMARK   42  A    between atoms: _102  and  _105
REMARK   43  A    between atoms: _105  and  _106
REMARK   44  A    between atoms: _109  and  _111
REMARK   45  A    between atoms: _111  and  _112
REMARK   46  A    between atoms: _111  and  _114
REMARK   47  A    between atoms: _114  and  _115
REMARK   48  A    between atoms: _120  and  _121
REMARK   49  A    between atoms: _123  and  _125
REMARK   50  A    between atoms: _125  and  _126
REMARK   51  A    between atoms: _128  and  _130
REMARK   52  A    between atoms: _130  and  _131
REMARK   53  A    between atoms: _130  and  _133
REMARK   54  A    between atoms: _133  and  _134
REMARK   55  A    between atoms: _137  and  _139
REMARK   56  A    between atoms: _139  and  _140
REMARK   57  A    between atoms: _139  and  _142
REMARK   58  A    between atoms: _145  and  _147
REMARK   59  A    between atoms: _147  and  _148
REMARK   60  A    between atoms: _147  and  _150
REMARK   61  A    between atoms: _150  and  _151
REMARK   62  A    between atoms: _151  and  _152
REMARK   63  A    between atoms: _152  and  _153
REMARK   64  A    between atoms: _153  and  _154
REMARK   65  A    between atoms: _158  and  _160
REMARK   66  A    between atoms: _160  and  _161
REMARK   67  A    between atoms: _163  and  _165
REMARK   68  A    between atoms: _165  and  _166
REMARK   69  A    between atoms: _165  and  _168
REMARK   70  A    between atoms: _168  and  _169
REMARK   71  A    between atoms: _169  and  _170
REMARK   72  A    between atoms: _173  and  _175
REMARK   73  A    between atoms: _175  and  _176
REMARK   74  A    between atoms: _175  and  _178
REMARK   75  A    between atoms: _178  and  _179
REMARK   76  A    between atoms: _182  and  _184
REMARK   77  A    between atoms: _184  and  _185
REMARK   78  A    between atoms: _184  and  _187
REMARK   79  A    between atoms: _187  and  _188
REMARK   80  A    between atoms: _192  and  _193
REMARK   81  A    between atoms: _198  and  _200
REMARK   82  A    between atoms: _200  and  _201
REMARK   83  A    between atoms: _203  and  _205
REMARK   84  A    between atoms: _205  and  _206
REMARK   85  A    between atoms: _205  and  _208
REMARK   86  A    between atoms: _208  and  _209
REMARK   87  A    between atoms: _211  and  _213
REMARK   88  A    between atoms: _213  and  _214
REMARK   89  A    between atoms: _213  and  _216
REMARK   90  A    between atoms: _216  and  _217
REMARK   91  A    between atoms: _222  and  _224
REMARK   92  A    between atoms: _224  and  _225
REMARK   93  A    between atoms: _224  and  _227
REMARK   94  A    between atoms: _227  and  _228
REMARK   95  A    between atoms: _231  and  _233
REMARK   96  A    between atoms: _233  and  _234
REMARK   97  A    between atoms: _233  and  _236
REMARK   98  A    between atoms: _236  and  _237
REMARK   99  A    between atoms: _242  and  _243
REMARK  100  A    between atoms: _245  and  _247
REMARK  101  A    between atoms: _247  and  _248
REMARK  102  A    between atoms: _247  and  _250
REMARK  103  A    between atoms: _250  and  _251
REMARK  104  A    between atoms: _251  and  _252
REMARK  105  A    between atoms: _255  and  _257
REMARK  106  A    between atoms: _257  and  _258
REMARK  107  A    between atoms: _257  and  _260
REMARK  108  A    between atoms: _260  and  _261
REMARK  109  A    between atoms: _264  and  _266
REMARK  110  A    between atoms: _266  and  _267
REMARK  111  A    between atoms: _270  and  _272
REMARK  112  A    between atoms: _272  and  _273
REMARK  113  A    between atoms: _272  and  _275
REMARK  114  A    between atoms: _278  and  _280
REMARK  115  A    between atoms: _280  and  _281
REMARK  116  A    between atoms: _280  and  _283
REMARK  117  A    between atoms: _283  and  _284
REMARK  118  A    between atoms: _289  and  _291
REMARK  119  A    between atoms: _291  and  _292
REMARK  120  A    between atoms: _291  and  _294
REMARK  121  A    between atoms: _294  and  _295
REMARK  122  A    between atoms: _295  and  _296
REMARK  123  A    between atoms: _298  and  _300
REMARK  124  A    between atoms: _300  and  _301
REMARK  125  A    between atoms: _303  and  _305
REMARK  126  A    between atoms: _305  and  _306
REMARK  127  A    between atoms: _305  and  _308
REMARK  128  A    between atoms: _308  and  _309
REMARK  129  A    between atoms: _311  and  _313
REMARK  130  A    between atoms: _313  and  _314
REMARK  131  A    between atoms: _317  and  _319
REMARK  132  A    between atoms: _319  and  _320
REMARK  133  A    between atoms: _323  and  _325
REMARK  134  A    between atoms: _325  and  _326
REMARK  135  A    between atoms: _325  and  _328
REMARK  136  A    between atoms: _328  and  _329
REMARK  137  A    between atoms: _332  and  _334
REMARK  138  A    between atoms: _334  and  _335
REMARK  139  A    between atoms: _334  and  _337
REMARK  140  A    between atoms: _337  and  _338
REMARK  141  A    between atoms: _341  and  _343
REMARK  142  A    between atoms: _343  and  _344
REMARK  143  A    between atoms: _343  and  _346
REMARK  144  A    between atoms: _346  and  _347
REMARK  145  A    between atoms: _350  and  _352
REMARK  146  A    between atoms: _352  and  _353
REMARK  147  A    between atoms: _352  and  _355
REMARK  148  A    between atoms: _355  and  _356
REMARK  149  A    between atoms: _362  and  _364
REMARK  150  A    between atoms: _364  and  _365
REMARK  151  A    between atoms: _368  and  _369
REMARK  152  A    between atoms: _374  and  _376
REMARK  153  A    between atoms: _376  and  _377
REMARK  154  A    between atoms: _376  and  _379
REMARK  155  A    between atoms: _379  and  _380
REMARK  156  A    between atoms: _385  and  _386
REMARK  157  A    between atoms: _388  and  _390
REMARK  158  A    between atoms: _390  and  _391
REMARK  159  A    between atoms: _390  and  _393
REMARK  160  A    between atoms: _393  and  _394
REMARK  161  A    between atoms: _394  and  _395
REMARK  162  A    between atoms: _398  and  _400
REMARK  163  A    between atoms: _400  and  _401
REMARK  164  A    between atoms: _400  and  _403
REMARK  165  A    between atoms: _406  and  _408
REMARK  166  A    between atoms: _408  and  _409
REMARK  167  A    between atoms: _408  and  _411
REMARK  168  A    between atoms: _411  and  _412
REMARK  169  A    between atoms: _415  and  _417
REMARK  170  A    between atoms: _417  and  _418
REMARK  171  A    between atoms: _417  and  _420
REMARK  172  A    between atoms: _420  and  _421
REMARK  173  A    between atoms: _421  and  _422
REMARK  174  A    between atoms: _422  and  _423
REMARK  175  A    between atoms: _432  and  _434
REMARK  176  A    between atoms: _434  and  _435
REMARK  177  A    between atoms: _434  and  _437
REMARK  178  A    between atoms: _437  and  _438
REMARK  179  A    between atoms: _443  and  _445
REMARK  180  A    between atoms: _445  and  _446
REMARK  181  A    between atoms: _445  and  _448
REMARK  182  A    between atoms: _448  and  _449
REMARK  183  A    between atoms: _451  and  _453
REMARK  184  A    between atoms: _453  and  _454
REMARK  185  A    between atoms: _453  and  _456
REMARK  186  A    between atoms: _456  and  _457
REMARK  187  A    between atoms: _460  and  _462
REMARK  188  A    between atoms: _462  and  _463
REMARK  189  A    between atoms: _465  and  _467
REMARK  190  A    between atoms: _467  and  _468
REMARK  191  A    between atoms: _467  and  _470
REMARK  192  A    between atoms: _473  and  _475
REMARK  193  A    between atoms: _475  and  _476
REMARK  194  A    between atoms: _475  and  _478
REMARK  195  A    between atoms: _478  and  _479
REMARK  196  A    between atoms: _482  and  _484
REMARK  197  A    between atoms: _484  and  _485
REMARK  198  A    between atoms: _484  and  _487
REMARK  199  A    between atoms: _487  and  _488
REMARK  200  A    between atoms: _492  and  _493
REMARK  201  A    between atoms: _498  and  _500
REMARK  202  A    between atoms: _500  and  _501
REMARK  203  A    between atoms: _503  and  _505
REMARK  204  A    between atoms: _505  and  _506
REMARK  205  A    between atoms: _505  and  _508
REMARK  206  A    between atoms: _511  and  _513
REMARK  207  A    between atoms: _513  and  _514
REMARK  208  A    between atoms: _513  and  _516
REMARK  209  A    between atoms: _516  and  _517
REMARK  210  A    between atoms: _517  and  _518
REMARK  211  A    between atoms: _518  and  _519
REMARK  212  A    between atoms: _529  and  _530
REMARK  213  A    between atoms: _535  and  _537
REMARK  214  A    between atoms: _537  and  _538
REMARK  215  A    between atoms: _537  and  _540
REMARK  216  A    between atoms: _540  and  _541
REMARK  217  A    between atoms: _546  and  _548
REMARK  218  A    between atoms: _548  and  _549
REMARK  219  A    between atoms: _548  and  _551
REMARK  220  A    between atoms: _551  and  _552
REMARK  221  A    between atoms: _554  and  _556
REMARK  222  A    between atoms: _556  and  _557
REMARK  223  A    between atoms: _556  and  _559
REMARK  224  A    between atoms: _559  and  _560
REMARK  225  A    between atoms: _562  and  _564
REMARK  226  A    between atoms: _564  and  _565
REMARK  227  A    between atoms: _564  and  _567
REMARK  228  A    between atoms: _567  and  _568
REMARK  229  A    between atoms: _571  and  _573
REMARK  230  A    between atoms: _573  and  _574
REMARK  231  A    between atoms: _573  and  _576
REMARK  232  A    between atoms: _576  and  _577
REMARK  233  A    between atoms: _583  and  _585
REMARK  234  A    between atoms: _585  and  _586
REMARK  235  A    between atoms: _585  and  _588
REMARK  236  A    between atoms: _588  and  _589
REMARK  237  A    between atoms: _594  and  _596
REMARK  238  A    between atoms: _596  and  _597
REMARK  239  A    between atoms: _599  and  _601
REMARK  240  A    between atoms: _601  and  _602
REMARK  241  A    between atoms: _601  and  _604
REMARK  242  A    between atoms: _604  and  _605
REMARK  243  A    between atoms: _605  and  _606
REMARK  244  A    between atoms: _606  and  _607
REMARK  245  A    between atoms: _616  and  _618
REMARK  246  A    between atoms: _618  and  _619
REMARK  247  A    between atoms: _618  and  _621
REMARK  248  A    between atoms: _621  and  _622
REMARK  249  A    between atoms: _625  and  _627
REMARK  250  A    between atoms: _627  and  _628
REMARK  251  A    between atoms: _627  and  _630
REMARK  252  A    between atoms: _630  and  _631
REMARK                            x       y       z     vdW  Elec       q    Type
REMARK                         _______ _______ _______ _____ _____    ______ ____
ROOT
ATOM      1  CA  ASP A   3       7.191 -47.137   5.473  0.00  0.00    +0.160 C 
ENDROOT
BRANCH   1   3
ATOM      2  C   THR A   2       6.301 -47.605   3.238  0.00  0.00    +0.243 C 
ATOM      3  N   ASP A   3       7.291 -47.663   4.111  0.00  0.00    -0.296 N 
ATOM      4  H   ASP A   3       8.185 -48.104   3.816  0.00  0.00    +0.150 HD
ATOM      5  O   THR A   2       5.127 -47.254   3.506  0.00  0.00    -0.273 OA
BRANCH   2   6
ATOM      6  CA  THR A   2       6.695 -47.871   1.809  0.00  0.00    +0.176 C 
BRANCH   6   8
ATOM      7  C   THR A   1       5.431 -48.803  -0.074  0.00  0.00    +0.241 C 
ATOM      8  N   THR A   2       5.479 -47.978   0.987  0.00  0.00    -0.295 N 
ATOM      9  H   THR A   2       4.644 -47.407   1.230  0.00  0.00    +0.150 HD
ATOM     10  O   THR A   1       6.340 -49.655  -0.324  0.00  0.00    -0.274 OA
BRANCH   7  11
ATOM     11  CA  THR A   1       4.157 -48.830  -0.871  0.00  0.00    +0.172 C 
BRANCH  11  12
ATOM     12  CB  THR A   1       3.477 -50.237  -0.814  0.00  0.00    +0.135 C 
ATOM     13  CG2 THR A   1       3.063 -50.607   0.598  0.00  0.00    +0.034 C 
BRANCH  12  14
ATOM     14  OG1 THR A   1       2.329 -50.286  -1.694  0.00  0.00    -0.383 OA
ATOM     15  HG1 THR A   1       2.619 -50.108  -2.624  0.00  0.00    +0.210 HD
ENDBRANCH  12  14
ENDBRANCH  11  12
BRANCH  11  16
ATOM     16  N   THR A   1       4.516 -48.499  -2.269  0.00  0.00    -0.236 NA
ATOM     17  H   THR A   1       5.323 -48.995  -2.699  0.00  0.00    +0.142 HD
ENDBRANCH  11  16
ENDBRANCH   7  11
ENDBRANCH   6   8
BRANCH   6  18
ATOM     18  CB  THR A   2       7.670 -46.820   1.340  0.00  0.00    +0.137 C 
ATOM     19  CG2 THR A   2       7.897 -46.874  -0.245  0.00  0.00    +0.034 C 
BRANCH  18  20
ATOM     20  OG1 THR A   2       7.243 -45.520   1.765  0.00  0.00    -0.382 OA
ATOM     21  HG1 THR A   2       6.350 -45.326   1.384  0.00  0.00    +0.210 HD
ENDBRANCH  18  20
ENDBRANCH   6  18
ENDBRANCH   2   6
ENDBRANCH   1   3
BRANCH   1  22
ATOM     22  C   ASP A   3       8.048 -45.870   5.666  0.00  0.00    +0.241 C 
ATOM     23  O   ASP A   3       8.394 -45.503   6.782  0.00  0.00    -0.273 OA
ATOM     24  N   PHE A   4       8.393 -45.200   4.573  0.00  0.00    -0.297 N 
ATOM     25  H   PHE A   4       7.978 -45.465   3.657  0.00  0.00    +0.150 HD
BRANCH  24  26
ATOM     26  CA  PHE A   4       9.362 -44.079   4.641  0.00  0.00    +0.153 C 
BRANCH  26  27
ATOM     27  C   PHE A   4       8.848 -42.891   5.418  0.00  0.00    +0.241 C 
ATOM     28  O   PHE A   4       9.614 -42.069   5.858  0.00  0.00    -0.273 OA
ATOM     29  N   GLY A   5       7.545 -42.747   5.459  0.00  0.00    -0.296 N 
ATOM     30  H   GLY A   5       6.945 -43.490   5.047  0.00  0.00    +0.150 HD
BRANCH  29  31
ATOM     31  CA  GLY A   5       6.910 -41.586   6.059  0.00  0.00    +0.163 C 
BRANCH  31  32
ATOM     32  C   GLY A   5       6.665 -40.478   5.047  0.00  0.00    +0.229 C 
ATOM     33  O   GLY A   5       7.211 -40.514   3.933  0.00  0.00    -0.286 OA
ENDBRANCH  31  32
ENDBRANCH  29  31
ENDBRANCH  26  27
BRANCH  26  34
ATOM     34  CB  PHE A   4       9.659 -43.524   3.260  0.00  0.00    +0.055 C 
BRANCH  34  35
ATOM     35  CG  PHE A   4      10.394 -44.456   2.322  0.00  0.00    -0.020 A 
ATOM     36  CD2 PHE A   4      10.899 -45.653   2.758  0.00  0.00    -0.004 A 
ATOM     37  CE2 PHE A   4      11.547 -46.507   1.885  0.00  0.00    -0.000 A 
ATOM     38  CZ  PHE A   4      11.672 -46.168   0.596  0.00  0.00    -0.000 A 
ATOM     39  CE1 PHE A   4      11.138 -44.930   0.125  0.00  0.00    -0.000 A 
ATOM     40  CD1 PHE A   4      10.500 -44.134   0.966  0.00  0.00    -0.004 A 
ENDBRANCH  34  35
ENDBRANCH  26  34
ENDBRANCH  24  26
ENDBRANCH   1  22
BRANCH   1  41
ATOM     41  CB  ASP A   3       7.614 -48.181   6.509  0.00  0.00    +0.143 C 
BRANCH  41  42
ATOM     42  CG  ASP A   3       9.146 -48.532   6.436  0.00  0.00    +0.367 C 
ATOM     43  OD2 ASP A   3       9.717 -49.111   7.393  0.00  0.00    -0.246 OA
ATOM     44  OD1 ASP A   3       9.788 -48.186   5.412  0.00  0.00    -0.246 OA
ENDBRANCH  41  42
ENDBRANCH   1  41
TORSDOF 18
REMARK  Name = ../refined-set-2016/2wr8/2wr8_pocket.pdb
REMARK  252 active torsions:
REMARK  status: ('A' for Active; 'I' for Inactive)
REMARK    1  A    between atoms: _1  and  _3
REMARK    2  A    between atoms: _3  and  _4
REMARK    3  A    between atoms: _3  and  _6
REMARK    4  A    between atoms: _6  and  _7
REMARK    5  A    between atoms: _13  and  _15
REMARK    6  A    between atoms: _15  and  _16
REMARK    7  A    between atoms: _15  and  _18
REMARK    8  A    between atoms: _18  and  _19
REMARK    9  A    between atoms: _24  and  _25
REMARK   10  A    between atoms: _27  and  _29
REMARK   11  A    between atoms: _29  and  _30
REMARK   12  A    between atoms: _29  and  _32
REMARK   13  A    between atoms: _32  and  _33
REMARK   14  A    between atoms: _36  and  _38
REMARK   15  A    between atoms: _38  and  _39
REMARK   16  A    between atoms: _38  and  _41
REMARK   17  A    between atoms: _41  and  _42
REMARK   18  A    between atoms: _45  and  _47
REMARK   19  A    between atoms: _47  and  _48
REMARK   20  A    between atoms: _47  and  _50
REMARK   21  A    between atoms: _50  and  _51
REMARK   22  A    between atoms: _57  and  _59
REMARK   23  A    between atoms: _59  and  _60
REMARK   24  A    between atoms: _62  and  _64
REMARK   25  A    between atoms: _64  and  _65
REMARK   26  A    between atoms: _64  and  _67
REMARK   27  A    between atoms: _67  and  _68
REMARK   28  A    between atoms: _73  and  _75
REMARK   29  A    between atoms: _75  and  _76
REMARK   30  A    between atoms: _75  and  _78
REMARK   31  A    between atoms: _81  and  _83
REMARK   32  A    between atoms: _83  and  _84
REMARK   33  A    between atoms: _83  and  _86
REMARK   34  A    between atoms: _86  and  _87
REMARK   35  A    between atoms: _90  and  _92
REMARK   36  A    between atoms: _92  and  _93
REMARK   37  A    between atoms: _92  and  _95
REMARK   38  A    between atoms: _95  and  _96
REMARK   39  A    between atoms: _96  and  _97
REMARK   40  A    between atoms: _100  and  _102
REMARK   41  A    between atoms: _102  and  _103
REMARK   42  A    between atoms: _102  and  _105
REMARK   43  A    between atoms: _105  and  _106
REMARK   44  A    between atoms: _109  and  _111
REMARK   45  A    between atoms: _111  and  _112
REMARK   46  A    between atoms: _111  and  _114
REMARK   47  A    between atoms: _114  and  _115
REMARK   48  A    between atoms: _120  and  _121
REMARK   49  A    between atoms: _123  and  _125
REMARK   50  A    between atoms: _125  and  _126
REMARK   51  A    between atoms: _128  and  _130
REMARK   52  A    between atoms: _130  and  _131
REMARK   53  A    between atoms: _130  and  _133
REMARK   54  A    between atoms: _133  and  _134
REMARK   55  A    between atoms: _137  and  _139
REMARK   56  A    between atoms: _139  and  _140
REMARK   57  A    between atoms: _139  and  _142
REMARK   58  A    between atoms: _145  and  _147
REMARK   59  A    between atoms: _147  and  _148
REMARK   60  A    between atoms: _147  and  _150
REMARK   61  A    between atoms: _150  and  _151
REMARK   62  A    between atoms: _151  and  _152
REMARK   63  A    between atoms: _152  and  _153
REMARK   64  A    between atoms: _153  and  _154
REMARK   65  A    between atoms: _158  and  _160
REMARK   66  A    between atoms: _160  and  _161
REMARK   67  A    between atoms: _163  and  _165
REMARK   68  A    between atoms: _165  and  _166
REMARK   69  A    between atoms: _165  and  _168
REMARK   70  A    between atoms: _168  and  _169
REMARK   71  A    between atoms: _169  and  _170
REMARK   72  A    between atoms: _173  and  _175
REMARK   73  A    between atoms: _175  and  _176
REMARK   74  A    between atoms: _175  and  _178
REMARK   75  A    between atoms: _178  and  _179
REMARK   76  A    between atoms: _182  and  _184
REMARK   77  A    between atoms: _184  and  _185
REMARK   78  A    between atoms: _184  and  _187
REMARK   79  A    between atoms: _187  and  _188
REMARK   80  A    between atoms: _192  and  _193
REMARK   81  A    between atoms: _198  and  _200
REMARK   82  A    between atoms: _200  and  _201
REMARK   83  A    between atoms: _203  and  _205
REMARK   84  A    between atoms: _205  and  _206
REMARK   85  A    between atoms: _205  and  _208
REMARK   86  A    between atoms: _208  and  _209
REMARK   87  A    between atoms: _211  and  _213
REMARK   88  A    between atoms: _213  and  _214
REMARK   89  A    between atoms: _213  and  _216
REMARK   90  A    between atoms: _216  and  _217
REMARK   91  A    between atoms: _222  and  _224
REMARK   92  A    between atoms: _224  and  _225
REMARK   93  A    between atoms: _224  and  _227
REMARK   94  A    between atoms: _227  and  _228
REMARK   95  A    between atoms: _231  and  _233
REMARK   96  A    between atoms: _233  and  _234
REMARK   97  A    between atoms: _233  and  _236
REMARK   98  A    between atoms: _236  and  _237
REMARK   99  A    between atoms: _242  and  _243
REMARK  100  A    between atoms: _245  and  _247
REMARK  101  A    between atoms: _247  and  _248
REMARK  102  A    between atoms: _247  and  _250
REMARK  103  A    between atoms: _250  and  _251
REMARK  104  A    between atoms: _251  and  _252
REMARK  105  A    between atoms: _255  and  _257
REMARK  106  A    between atoms: _257  and  _258
REMARK  107  A    between atoms: _257  and  _260
REMARK  108  A    between atoms: _260  and  _261
REMARK  109  A    between atoms: _264  and  _266
REMARK  110  A    between atoms: _266  and  _267
REMARK  111  A    between atoms: _270  and  _272
REMARK  112  A    between atoms: _272  and  _273
REMARK  113  A    between atoms: _272  and  _275
REMARK  114  A    between atoms: _278  and  _280
REMARK  115  A    between atoms: _280  and  _281
REMARK  116  A    between atoms: _280  and  _283
REMARK  117  A    between atoms: _283  and  _284
REMARK  118  A    between atoms: _289  and  _291
REMARK  119  A    between atoms: _291  and  _292
REMARK  120  A    between atoms: _291  and  _294
REMARK  121  A    between atoms: _294  and  _295
REMARK  122  A    between atoms: _295  and  _296
REMARK  123  A    between atoms: _298  and  _300
REMARK  124  A    between atoms: _300  and  _301
REMARK  125  A    between atoms: _303  and  _305
REMARK  126  A    between atoms: _305  and  _306
REMARK  127  A    between atoms: _305  and  _308
REMARK  128  A    between atoms: _308  and  _309
REMARK  129  A    between atoms: _311  and  _313
REMARK  130  A    between atoms: _313  and  _314
REMARK  131  A    between atoms: _317  and  _319
REMARK  132  A    between atoms: _319  and  _320
REMARK  133  A    between atoms: _323  and  _325
REMARK  134  A    between atoms: _325  and  _326
REMARK  135  A    between atoms: _325  and  _328
REMARK  136  A    between atoms: _328  and  _329
REMARK  137  A    between atoms: _332  and  _334
REMARK  138  A    between atoms: _334  and  _335
REMARK  139  A    between atoms: _334  and  _337
REMARK  140  A    between atoms: _337  and  _338
REMARK  141  A    between atoms: _341  and  _343
REMARK  142  A    between atoms: _343  and  _344
REMARK  143  A    between atoms: _343  and  _346
REMARK  144  A    between atoms: _346  and  _347
REMARK  145  A    between atoms: _350  and  _352
REMARK  146  A    between atoms: _352  and  _353
REMARK  147  A    between atoms: _352  and  _355
REMARK  148  A    between atoms: _355  and  _356
REMARK  149  A    between atoms: _362  and  _364
REMARK  150  A    between atoms: _364  and  _365
REMARK  151  A    between atoms: _368  and  _369
REMARK  152  A    between atoms: _374  and  _376
REMARK  153  A    between atoms: _376  and  _377
REMARK  154  A    between atoms: _376  and  _379
REMARK  155  A    between atoms: _379  and  _380
REMARK  156  A    between atoms: _385  and  _386
REMARK  157  A    between atoms: _388  and  _390
REMARK  158  A    between atoms: _390  and  _391
REMARK  159  A    between atoms: _390  and  _393
REMARK  160  A    between atoms: _393  and  _394
REMARK  161  A    between atoms: _394  and  _395
REMARK  162  A    between atoms: _398  and  _400
REMARK  163  A    between atoms: _400  and  _401
REMARK  164  A    between atoms: _400  and  _403
REMARK  165  A    between atoms: _406  and  _408
REMARK  166  A    between atoms: _408  and  _409
REMARK  167  A    between atoms: _408  and  _411
REMARK  168  A    between atoms: _411  and  _412
REMARK  169  A    between atoms: _415  and  _417
REMARK  170  A    between atoms: _417  and  _418
REMARK  171  A    between atoms: _417  and  _420
REMARK  172  A    between atoms: _420  and  _421
REMARK  173  A    between atoms: _421  and  _422
REMARK  174  A    between atoms: _422  and  _423
REMARK  175  A    between atoms: _432  and  _434
REMARK  176  A    between atoms: _434  and  _435
REMARK  177  A    between atoms: _434  and  _437
REMARK  178  A    between atoms: _437  and  _438
REMARK  179  A    between atoms: _443  and  _445
REMARK  180  A    between atoms: _445  and  _446
REMARK  181  A    between atoms: _445  and  _448
REMARK  182  A    between atoms: _448  and  _449
REMARK  183  A    between atoms: _451  and  _453
REMARK  184  A    between atoms: _453  and  _454
REMARK  185  A    between atoms: _453  and  _456
REMARK  186  A    between atoms: _456  and  _457
REMARK  187  A    between atoms: _460  and  _462
REMARK  188  A    between atoms: _462  and  _463
REMARK  189  A    between atoms: _465  and  _467
REMARK  190  A    between atoms: _467  and  _468
REMARK  191  A    between atoms: _467  and  _470
REMARK  192  A    between atoms: _473  and  _475
REMARK  193  A    between atoms: _475  and  _476
REMARK  194  A    between atoms: _475  and  _478
REMARK  195  A    between atoms: _478  and  _479
REMARK  196  A    between atoms: _482  and  _484
REMARK  197  A    between atoms: _484  and  _485
REMARK  198  A    between atoms: _484  and  _487
REMARK  199  A    between atoms: _487  and  _488
REMARK  200  A    between atoms: _492  and  _493
REMARK  201  A    between atoms: _498  and  _500
REMARK  202  A    between atoms: _500  and  _501
REMARK  203  A    between atoms: _503  and  _505
REMARK  204  A    between atoms: _505  and  _506
REMARK  205  A    between atoms: _505  and  _508
REMARK  206  A    between atoms: _511  and  _513
REMARK  207  A    between atoms: _513  and  _514
REMARK  208  A    between atoms: _513  and  _516
REMARK  209  A    between atoms: _516  and  _517
REMARK  210  A    between atoms: _517  and  _518
REMARK  211  A    between atoms: _518  and  _519
REMARK  212  A    between atoms: _529  and  _530
REMARK  213  A    between atoms: _535  and  _537
REMARK  214  A    between atoms: _537  and  _538
REMARK  215  A    between atoms: _537  and  _540
REMARK  216  A    between atoms: _540  and  _541
REMARK  217  A    between atoms: _546  and  _548
REMARK  218  A    between atoms: _548  and  _549
REMARK  219  A    between atoms: _548  and  _551
REMARK  220  A    between atoms: _551  and  _552
REMARK  221  A    between atoms: _554  and  _556
REMARK  222  A    between atoms: _556  and  _557
REMARK  223  A    between atoms: _556  and  _559
REMARK  224  A    between atoms: _559  and  _560
REMARK  225  A    between atoms: _562  and  _564
REMARK  226  A    between atoms: _564  and  _565
REMARK  227  A    between atoms: _564  and  _567
REMARK  228  A    between atoms: _567  and  _568
REMARK  229  A    between atoms: _571  and  _573
REMARK  230  A    between atoms: _573  and  _574
REMARK  231  A    between atoms: _573  and  _576
REMARK  232  A    between atoms: _576  and  _577
REMARK  233  A    between atoms: _583  and  _585
REMARK  234  A    between atoms: _585  and  _586
REMARK  235  A    between atoms: _585  and  _588
REMARK  236  A    between atoms: _588  and  _589
REMARK  237  A    between atoms: _594  and  _596
REMARK  238  A    between atoms: _596  and  _597
REMARK  239  A    between atoms: _599  and  _601
REMARK  240  A    between atoms: _601  and  _602
REMARK  241  A    between atoms: _601  and  _604
REMARK  242  A    between atoms: _604  and  _605
REMARK  243  A    between atoms: _605  and  _606
REMARK  244  A    between atoms: _606  and  _607
REMARK  245  A    between atoms: _616  and  _618
REMARK  246  A    between atoms: _618  and  _619
REMARK  247  A    between atoms: _618  and  _621
REMARK  248  A    between atoms: _621  and  _622
REMARK  249  A    between atoms: _625  and  _627
REMARK  250  A    between atoms: _627  and  _628
REMARK  251  A    between atoms: _627  and  _630
REMARK  252  A    between atoms: _630  and  _631
REMARK                            x       y       z     vdW  Elec       q    Type
REMARK                         _______ _______ _______ _____ _____    ______ ____
ROOT
ATOM      1  CA  TYR A   2      12.469 -39.613   0.758  0.00  0.00    +0.141 C 
ENDROOT
BRANCH   1   3
ATOM      2  C   PRO A   1      12.373 -37.217   0.439  0.00  0.00    +0.239 C 
ATOM      3  N   TYR A   2      12.176 -38.257   1.264  0.00  0.00    -0.298 N 
ATOM      4  H   TYR A   2      11.827 -38.112   2.233  0.00  0.00    +0.150 HD
ATOM      5  O   PRO A   1      12.530 -37.334  -0.788  0.00  0.00    -0.274 OA
BRANCH   2  10
ATOM      6  N   PRO A   1      12.187 -35.711   2.455  0.00  0.00    -0.210 NA
ATOM      7  CD  PRO A   1      13.464 -35.735   3.204  0.00  0.00    +0.089 C 
ATOM      8  CG  PRO A   1      14.470 -35.793   2.172  0.00  0.00    +0.021 C 
ATOM      9  CB  PRO A   1      13.863 -35.328   0.906  0.00  0.00    +0.028 C 
ATOM     10  CA  PRO A   1      12.435 -35.826   1.026  0.00  0.00    +0.149 C 
ENDBRANCH   2  10
ENDBRANCH   1   3
BRANCH   1  11
ATOM     11  C   TYR A   2      11.572 -39.969  -0.402  0.00  0.00    +0.227 C 
ATOM     12  O   TYR A   2      12.025 -40.418  -1.449  0.00  0.00    -0.286 OA
ENDBRANCH   1  11
BRANCH   1  13
ATOM     13  CB  TYR A   2      12.316 -40.647   1.880  0.00  0.00    +0.054 C 
BRANCH  13  14
ATOM     14  CG  TYR A   2      13.188 -40.497   3.086  0.00  0.00    -0.020 A 
ATOM     15  CD2 TYR A   2      12.715 -40.820   4.362  0.00  0.00    -0.001 A 
ATOM     16  CE2 TYR A   2      13.500 -40.702   5.476  0.00  0.00    +0.036 A 
ATOM     17  CZ  TYR A   2      14.772 -40.181   5.385  0.00  0.00    +0.134 A 
ATOM     18  CE1 TYR A   2      15.264 -39.840   4.199  0.00  0.00    +0.036 A 
ATOM     19  CD1 TYR A   2      14.484 -39.968   3.028  0.00  0.00    -0.001 A 
BRANCH  17  20
ATOM     20  OH  TYR A   2      15.572 -40.033   6.493  0.00  0.00    -0.506 OA
ATOM     21  HH  TYR A   2      15.076 -40.325   7.298  0.00  0.00    +0.292 HD
ENDBRANCH  17  20
ENDBRANCH  13  14
ENDBRANCH   1  13
TORSDOF 6
REMARK  Name = ../refined-set-2016/2wr8/2wr8_pocket.pdb
REMARK  252 active torsions:
REMARK  status: ('A' for Active; 'I' for Inactive)
REMARK    1  A    between atoms: _1  and  _3
REMARK    2  A    between atoms: _3  and  _4
REMARK    3  A    between atoms: _3  and  _6
REMARK    4  A    between atoms: _6  and  _7
REMARK    5  A    between atoms: _13  and  _15
REMARK    6  A    between atoms: _15  and  _16
REMARK    7  A    between atoms: _15  and  _18
REMARK    8  A    between atoms: _18  and  _19
REMARK    9  A    between atoms: _24  and  _25
REMARK   10  A    between atoms: _27  and  _29
REMARK   11  A    between atoms: _29  and  _30
REMARK   12  A    between atoms: _29  and  _32
REMARK   13  A    between atoms: _32  and  _33
REMARK   14  A    between atoms: _36  and  _38
REMARK   15  A    between atoms: _38  and  _39
REMARK   16  A    between atoms: _38  and  _41
REMARK   17  A    between atoms: _41  and  _42
REMARK   18  A    between atoms: _45  and  _47
REMARK   19  A    between atoms: _47  and  _48
REMARK   20  A    between atoms: _47  and  _50
REMARK   21  A    between atoms: _50  and  _51
REMARK   22  A    between atoms: _57  and  _59
REMARK   23  A    between atoms: _59  and  _60
REMARK   24  A    between atoms: _62  and  _64
REMARK   25  A    between atoms: _64  and  _65
REMARK   26  A    between atoms: _64  and  _67
REMARK   27  A    between atoms: _67  and  _68
REMARK   28  A    between atoms: _73  and  _75
REMARK   29  A    between atoms: _75  and  _76
REMARK   30  A    between atoms: _75  and  _78
REMARK   31  A    between atoms: _81  and  _83
REMARK   32  A    between atoms: _83  and  _84
REMARK   33  A    between atoms: _83  and  _86
REMARK   34  A    between atoms: _86  and  _87
REMARK   35  A    between atoms: _90  and  _92
REMARK   36  A    between atoms: _92  and  _93
REMARK   37  A    between atoms: _92  and  _95
REMARK   38  A    between atoms: _95  and  _96
REMARK   39  A    between atoms: _96  and  _97
REMARK   40  A    between atoms: _100  and  _102
REMARK   41  A    between atoms: _102  and  _103
REMARK   42  A    between atoms: _102  and  _105
REMARK   43  A    between atoms: _105  and  _106
REMARK   44  A    between atoms: _109  and  _111
REMARK   45  A    between atoms: _111  and  _112
REMARK   46  A    between atoms: _111  and  _114
REMARK   47  A    between atoms: _114  and  _115
REMARK   48  A    between atoms: _120  and  _121
REMARK   49  A    between atoms: _123  and  _125
REMARK   50  A    between atoms: _125  and  _126
REMARK   51  A    between atoms: _128  and  _130
REMARK   52  A    between atoms: _130  and  _131
REMARK   53  A    between atoms: _130  and  _133
REMARK   54  A    between atoms: _133  and  _134
REMARK   55  A    between atoms: _137  and  _139
REMARK   56  A    between atoms: _139  and  _140
REMARK   57  A    between atoms: _139  and  _142
REMARK   58  A    between atoms: _145  and  _147
REMARK   59  A    between atoms: _147  and  _148
REMARK   60  A    between atoms: _147  and  _150
REMARK   61  A    between atoms: _150  and  _151
REMARK   62  A    between atoms: _151  and  _152
REMARK   63  A    between atoms: _152  and  _153
REMARK   64  A    between atoms: _153  and  _154
REMARK   65  A    between atoms: _158  and  _160
REMARK   66  A    between atoms: _160  and  _161
REMARK   67  A    between atoms: _163  and  _165
REMARK   68  A    between atoms: _165  and  _166
REMARK   69  A    between atoms: _165  and  _168
REMARK   70  A    between atoms: _168  and  _169
REMARK   71  A    between atoms: _169  and  _170
REMARK   72  A    between atoms: _173  and  _175
REMARK   73  A    between atoms: _175  and  _176
REMARK   74  A    between atoms: _175  and  _178
REMARK   75  A    between atoms: _178  and  _179
REMARK   76  A    between atoms: _182  and  _184
REMARK   77  A    between atoms: _184  and  _185
REMARK   78  A    between atoms: _184  and  _187
REMARK   79  A    between atoms: _187  and  _188
REMARK   80  A    between atoms: _192  and  _193
REMARK   81  A    between atoms: _198  and  _200
REMARK   82  A    between atoms: _200  and  _201
REMARK   83  A    between atoms: _203  and  _205
REMARK   84  A    between atoms: _205  and  _206
REMARK   85  A    between atoms: _205  and  _208
REMARK   86  A    between atoms: _208  and  _209
REMARK   87  A    between atoms: _211  and  _213
REMARK   88  A    between atoms: _213  and  _214
REMARK   89  A    between atoms: _213  and  _216
REMARK   90  A    between atoms: _216  and  _217
REMARK   91  A    between atoms: _222  and  _224
REMARK   92  A    between atoms: _224  and  _225
REMARK   93  A    between atoms: _224  and  _227
REMARK   94  A    between atoms: _227  and  _228
REMARK   95  A    between atoms: _231  and  _233
REMARK   96  A    between atoms: _233  and  _234
REMARK   97  A    between atoms: _233  and  _236
REMARK   98  A    between atoms: _236  and  _237
REMARK   99  A    between atoms: _242  and  _243
REMARK  100  A    between atoms: _245  and  _247
REMARK  101  A    between atoms: _247  and  _248
REMARK  102  A    between atoms: _247  and  _250
REMARK  103  A    between atoms: _250  and  _251
REMARK  104  A    between atoms: _251  and  _252
REMARK  105  A    between atoms: _255  and  _257
REMARK  106  A    between atoms: _257  and  _258
REMARK  107  A    between atoms: _257  and  _260
REMARK  108  A    between atoms: _260  and  _261
REMARK  109  A    between atoms: _264  and  _266
REMARK  110  A    between atoms: _266  and  _267
REMARK  111  A    between atoms: _270  and  _272
REMARK  112  A    between atoms: _272  and  _273
REMARK  113  A    between atoms: _272  and  _275
REMARK  114  A    between atoms: _278  and  _280
REMARK  115  A    between atoms: _280  and  _281
REMARK  116  A    between atoms: _280  and  _283
REMARK  117  A    between atoms: _283  and  _284
REMARK  118  A    between atoms: _289  and  _291
REMARK  119  A    between atoms: _291  and  _292
REMARK  120  A    between atoms: _291  and  _294
REMARK  121  A    between atoms: _294  and  _295
REMARK  122  A    between atoms: _295  and  _296
REMARK  123  A    between atoms: _298  and  _300
REMARK  124  A    between atoms: _300  and  _301
REMARK  125  A    between atoms: _303  and  _305
REMARK  126  A    between atoms: _305  and  _306
REMARK  127  A    between atoms: _305  and  _308
REMARK  128  A    between atoms: _308  and  _309
REMARK  129  A    between atoms: _311  and  _313
REMARK  130  A    between atoms: _313  and  _314
REMARK  131  A    between atoms: _317  and  _319
REMARK  132  A    between atoms: _319  and  _320
REMARK  133  A    between atoms: _323  and  _325
REMARK  134  A    between atoms: _325  and  _326
REMARK  135  A    between atoms: _325  and  _328
REMARK  136  A    between atoms: _328  and  _329
REMARK  137  A    between atoms: _332  and  _334
REMARK  138  A    between atoms: _334  and  _335
REMARK  139  A    between atoms: _334  and  _337
REMARK  140  A    between atoms: _337  and  _338
REMARK  141  A    between atoms: _341  and  _343
REMARK  142  A    between atoms: _343  and  _344
REMARK  143  A    between atoms: _343  and  _346
REMARK  144  A    between atoms: _346  and  _347
REMARK  145  A    between atoms: _350  and  _352
REMARK  146  A    between atoms: _352  and  _353
REMARK  147  A    between atoms: _352  and  _355
REMARK  148  A    between atoms: _355  and  _356
REMARK  149  A    between atoms: _362  and  _364
REMARK  150  A    between atoms: _364  and  _365
REMARK  151  A    between atoms: _368  and  _369
REMARK  152  A    between atoms: _374  and  _376
REMARK  153  A    between atoms: _376  and  _377
REMARK  154  A    between atoms: _376  and  _379
REMARK  155  A    between atoms: _379  and  _380
REMARK  156  A    between atoms: _385  and  _386
REMARK  157  A    between atoms: _388  and  _390
REMARK  158  A    between atoms: _390  and  _391
REMARK  159  A    between atoms: _390  and  _393
REMARK  160  A    between atoms: _393  and  _394
REMARK  161  A    between atoms: _394  and  _395
REMARK  162  A    between atoms: _398  and  _400
REMARK  163  A    between atoms: _400  and  _401
REMARK  164  A    between atoms: _400  and  _403
REMARK  165  A    between atoms: _406  and  _408
REMARK  166  A    between atoms: _408  and  _409
REMARK  167  A    between atoms: _408  and  _411
REMARK  168  A    between atoms: _411  and  _412
REMARK  169  A    between atoms: _415  and  _417
REMARK  170  A    between atoms: _417  and  _418
REMARK  171  A    between atoms: _417  and  _420
REMARK  172  A    between atoms: _420  and  _421
REMARK  173  A    between atoms: _421  and  _422
REMARK  174  A    between atoms: _422  and  _423
REMARK  175  A    between atoms: _432  and  _434
REMARK  176  A    between atoms: _434  and  _435
REMARK  177  A    between atoms: _434  and  _437
REMARK  178  A    between atoms: _437  and  _438
REMARK  179  A    between atoms: _443  and  _445
REMARK  180  A    between atoms: _445  and  _446
REMARK  181  A    between atoms: _445  and  _448
REMARK  182  A    between atoms: _448  and  _449
REMARK  183  A    between atoms: _451  and  _453
REMARK  184  A    between atoms: _453  and  _454
REMARK  185  A    between atoms: _453  and  _456
REMARK  186  A    between atoms: _456  and  _457
REMARK  187  A    between atoms: _460  and  _462
REMARK  188  A    between atoms: _462  and  _463
REMARK  189  A    between atoms: _465  and  _467
REMARK  190  A    between atoms: _467  and  _468
REMARK  191  A    between atoms: _467  and  _470
REMARK  192  A    between atoms: _473  and  _475
REMARK  193  A    between atoms: _475  and  _476
REMARK  194  A    between atoms: _475  and  _478
REMARK  195  A    between atoms: _478  and  _479
REMARK  196  A    between atoms: _482  and  _484
REMARK  197  A    between atoms: _484  and  _485
REMARK  198  A    between atoms: _484  and  _487
REMARK  199  A    between atoms: _487  and  _488
REMARK  200  A    between atoms: _492  and  _493
REMARK  201  A    between atoms: _498  and  _500
REMARK  202  A    between atoms: _500  and  _501
REMARK  203  A    between atoms: _503  and  _505
REMARK  204  A    between atoms: _505  and  _506
REMARK  205  A    between atoms: _505  and  _508
REMARK  206  A    between atoms: _511  and  _513
REMARK  207  A    between atoms: _513  and  _514
REMARK  208  A    between atoms: _513  and  _516
REMARK  209  A    between atoms: _516  and  _517
REMARK  210  A    between atoms: _517  and  _518
REMARK  211  A    between atoms: _518  and  _519
REMARK  212  A    between atoms: _529  and  _530
REMARK  213  A    between atoms: _535  and  _537
REMARK  214  A    between atoms: _537  and  _538
REMARK  215  A    between atoms: _537  and  _540
REMARK  216  A    between atoms: _540  and  _541
REMARK  217  A    between atoms: _546  and  _548
REMARK  218  A    between atoms: _548  and  _549
REMARK  219  A    between atoms: _548  and  _551
REMARK  220  A    between atoms: _551  and  _552
REMARK  221  A    between atoms: _554  and  _556
REMARK  222  A    between atoms: _556  and  _557
REMARK  223  A    between atoms: _556  and  _559
REMARK  224  A    between atoms: _559  and  _560
REMARK  225  A    between atoms: _562  and  _564
REMARK  226  A    between atoms: _564  and  _565
REMARK  227  A    between atoms: _564  and  _567
REMARK  228  A    between atoms: _567  and  _568
REMARK  229  A    between atoms: _571  and  _573
REMARK  230  A    between atoms: _573  and  _574
REMARK  231  A    between atoms: _573  and  _576
REMARK  232  A    between atoms: _576  and  _577
REMARK  233  A    between atoms: _583  and  _585
REMARK  234  A    between atoms: _585  and  _586
REMARK  235  A    between atoms: _585  and  _588
REMARK  236  A    between atoms: _588  and  _589
REMARK  237  A    between atoms: _594  and  _596
REMARK  238  A    between atoms: _596  and  _597
REMARK  239  A    between atoms: _599  and  _601
REMARK  240  A    between atoms: _601  and  _602
REMARK  241  A    between atoms: _601  and  _604
REMARK  242  A    between atoms: _604  and  _605
REMARK  243  A    between atoms: _605  and  _606
REMARK  244  A    between atoms: _606  and  _607
REMARK  245  A    between atoms: _616  and  _618
REMARK  246  A    between atoms: _618  and  _619
REMARK  247  A    between atoms: _618  and  _621
REMARK  248  A    between atoms: _621  and  _622
REMARK  249  A    between atoms: _625  and  _627
REMARK  250  A    between atoms: _627  and  _628
REMARK  251  A    between atoms: _627  and  _630
REMARK  252  A    between atoms: _630  and  _631
REMARK                            x       y       z     vdW  Elec       q    Type
REMARK                         _______ _______ _______ _____ _____    ______ ____
ROOT
ATOM      1  CA  GLU A   1      13.682 -38.345  -4.150  0.00  0.00    +0.134 C 
ENDROOT
BRANCH   1   2
ATOM      2  N   GLU A   1      12.422 -37.855  -3.552  0.00  0.00    -0.239 NA
ATOM      3  H   GLU A   1      12.357 -37.718  -2.523  0.00  0.00    +0.142 HD
ENDBRANCH   1   2
BRANCH   1   4
ATOM      4  C   GLU A   1      13.472 -39.592  -5.003  0.00  0.00    +0.224 C 
ATOM      5  O   GLU A   1      13.919 -39.663  -6.153  0.00  0.00    -0.287 OA
ENDBRANCH   1   4
BRANCH   1   6
ATOM      6  CB  GLU A   1      14.728 -38.619  -3.077  0.00  0.00    +0.037 C 
BRANCH   6   7
ATOM      7  CG  GLU A   1      15.347 -37.377  -2.545  0.00  0.00    +0.116 C 
BRANCH   7   8
ATOM      8  CD  GLU A   1      16.313 -37.700  -1.437  0.00  0.00    +0.365 C 
ATOM      9  OE2 GLU A   1      15.869 -37.831  -0.256  0.00  0.00    -0.246 OA
ATOM     10  OE1 GLU A   1      17.486 -37.896  -1.794  0.00  0.00    -0.246 OA
ENDBRANCH   7   8
ENDBRANCH   6   7
ENDBRANCH   1   6
TORSDOF 5
REMARK  Name = ../refined-set-2016/2wr8/2wr8_pocket.pdb
REMARK  252 active torsions:
REMARK  status: ('A' for Active; 'I' for Inactive)
REMARK    1  A    between atoms: _1  and  _3
REMARK    2  A    between atoms: _3  and  _4
REMARK    3  A    between atoms: _3  and  _6
REMARK    4  A    between atoms: _6  and  _7
REMARK    5  A    between atoms: _13  and  _15
REMARK    6  A    between atoms: _15  and  _16
REMARK    7  A    between atoms: _15  and  _18
REMARK    8  A    between atoms: _18  and  _19
REMARK    9  A    between atoms: _24  and  _25
REMARK   10  A    between atoms: _27  and  _29
REMARK   11  A    between atoms: _29  and  _30
REMARK   12  A    between atoms: _29  and  _32
REMARK   13  A    between atoms: _32  and  _33
REMARK   14  A    between atoms: _36  and  _38
REMARK   15  A    between atoms: _38  and  _39
REMARK   16  A    between atoms: _38  and  _41
REMARK   17  A    between atoms: _41  and  _42
REMARK   18  A    between atoms: _45  and  _47
REMARK   19  A    between atoms: _47  and  _48
REMARK   20  A    between atoms: _47  and  _50
REMARK   21  A    between atoms: _50  and  _51
REMARK   22  A    between atoms: _57  and  _59
REMARK   23  A    between atoms: _59  and  _60
REMARK   24  A    between atoms: _62  and  _64
REMARK   25  A    between atoms: _64  and  _65
REMARK   26  A    between atoms: _64  and  _67
REMARK   27  A    between atoms: _67  and  _68
REMARK   28  A    between atoms: _73  and  _75
REMARK   29  A    between atoms: _75  and  _76
REMARK   30  A    between atoms: _75  and  _78
REMARK   31  A    between atoms: _81  and  _83
REMARK   32  A    between atoms: _83  and  _84
REMARK   33  A    between atoms: _83  and  _86
REMARK   34  A    between atoms: _86  and  _87
REMARK   35  A    between atoms: _90  and  _92
REMARK   36  A    between atoms: _92  and  _93
REMARK   37  A    between atoms: _92  and  _95
REMARK   38  A    between atoms: _95  and  _96
REMARK   39  A    between atoms: _96  and  _97
REMARK   40  A    between atoms: _100  and  _102
REMARK   41  A    between atoms: _102  and  _103
REMARK   42  A    between atoms: _102  and  _105
REMARK   43  A    between atoms: _105  and  _106
REMARK   44  A    between atoms: _109  and  _111
REMARK   45  A    between atoms: _111  and  _112
REMARK   46  A    between atoms: _111  and  _114
REMARK   47  A    between atoms: _114  and  _115
REMARK   48  A    between atoms: _120  and  _121
REMARK   49  A    between atoms: _123  and  _125
REMARK   50  A    between atoms: _125  and  _126
REMARK   51  A    between atoms: _128  and  _130
REMARK   52  A    between atoms: _130  and  _131
REMARK   53  A    between atoms: _130  and  _133
REMARK   54  A    between atoms: _133  and  _134
REMARK   55  A    between atoms: _137  and  _139
REMARK   56  A    between atoms: _139  and  _140
REMARK   57  A    between atoms: _139  and  _142
REMARK   58  A    between atoms: _145  and  _147
REMARK   59  A    between atoms: _147  and  _148
REMARK   60  A    between atoms: _147  and  _150
REMARK   61  A    between atoms: _150  and  _151
REMARK   62  A    between atoms: _151  and  _152
REMARK   63  A    between atoms: _152  and  _153
REMARK   64  A    between atoms: _153  and  _154
REMARK   65  A    between atoms: _158  and  _160
REMARK   66  A    between atoms: _160  and  _161
REMARK   67  A    between atoms: _163  and  _165
REMARK   68  A    between atoms: _165  and  _166
REMARK   69  A    between atoms: _165  and  _168
REMARK   70  A    between atoms: _168  and  _169
REMARK   71  A    between atoms: _169  and  _170
REMARK   72  A    between atoms: _173  and  _175
REMARK   73  A    between atoms: _175  and  _176
REMARK   74  A    between atoms: _175  and  _178
REMARK   75  A    between atoms: _178  and  _179
REMARK   76  A    between atoms: _182  and  _184
REMARK   77  A    between atoms: _184  and  _185
REMARK   78  A    between atoms: _184  and  _187
REMARK   79  A    between atoms: _187  and  _188
REMARK   80  A    between atoms: _192  and  _193
REMARK   81  A    between atoms: _198  and  _200
REMARK   82  A    between atoms: _200  and  _201
REMARK   83  A    between atoms: _203  and  _205
REMARK   84  A    between atoms: _205  and  _206
REMARK   85  A    between atoms: _205  and  _208
REMARK   86  A    between atoms: _208  and  _209
REMARK   87  A    between atoms: _211  and  _213
REMARK   88  A    between atoms: _213  and  _214
REMARK   89  A    between atoms: _213  and  _216
REMARK   90  A    between atoms: _216  and  _217
REMARK   91  A    between atoms: _222  and  _224
REMARK   92  A    between atoms: _224  and  _225
REMARK   93  A    between atoms: _224  and  _227
REMARK   94  A    between atoms: _227  and  _228
REMARK   95  A    between atoms: _231  and  _233
REMARK   96  A    between atoms: _233  and  _234
REMARK   97  A    between atoms: _233  and  _236
REMARK   98  A    between atoms: _236  and  _237
REMARK   99  A    between atoms: _242  and  _243
REMARK  100  A    between atoms: _245  and  _247
REMARK  101  A    between atoms: _247  and  _248
REMARK  102  A    between atoms: _247  and  _250
REMARK  103  A    between atoms: _250  and  _251
REMARK  104  A    between atoms: _251  and  _252
REMARK  105  A    between atoms: _255  and  _257
REMARK  106  A    between atoms: _257  and  _258
REMARK  107  A    between atoms: _257  and  _260
REMARK  108  A    between atoms: _260  and  _261
REMARK  109  A    between atoms: _264  and  _266
REMARK  110  A    between atoms: _266  and  _267
REMARK  111  A    between atoms: _270  and  _272
REMARK  112  A    between atoms: _272  and  _273
REMARK  113  A    between atoms: _272  and  _275
REMARK  114  A    between atoms: _278  and  _280
REMARK  115  A    between atoms: _280  and  _281
REMARK  116  A    between atoms: _280  and  _283
REMARK  117  A    between atoms: _283  and  _284
REMARK  118  A    between atoms: _289  and  _291
REMARK  119  A    between atoms: _291  and  _292
REMARK  120  A    between atoms: _291  and  _294
REMARK  121  A    between atoms: _294  and  _295
REMARK  122  A    between atoms: _295  and  _296
REMARK  123  A    between atoms: _298  and  _300
REMARK  124  A    between atoms: _300  and  _301
REMARK  125  A    between atoms: _303  and  _305
REMARK  126  A    between atoms: _305  and  _306
REMARK  127  A    between atoms: _305  and  _308
REMARK  128  A    between atoms: _308  and  _309
REMARK  129  A    between atoms: _311  and  _313
REMARK  130  A    between atoms: _313  and  _314
REMARK  131  A    between atoms: _317  and  _319
REMARK  132  A    between atoms: _319  and  _320
REMARK  133  A    between atoms: _323  and  _325
REMARK  134  A    between atoms: _325  and  _326
REMARK  135  A    between atoms: _325  and  _328
REMARK  136  A    between atoms: _328  and  _329
REMARK  137  A    between atoms: _332  and  _334
REMARK  138  A    between atoms: _334  and  _335
REMARK  139  A    between atoms: _334  and  _337
REMARK  140  A    between atoms: _337  and  _338
REMARK  141  A    between atoms: _341  and  _343
REMARK  142  A    between atoms: _343  and  _344
REMARK  143  A    between atoms: _343  and  _346
REMARK  144  A    between atoms: _346  and  _347
REMARK  145  A    between atoms: _350  and  _352
REMARK  146  A    between atoms: _352  and  _353
REMARK  147  A    between atoms: _352  and  _355
REMARK  148  A    between atoms: _355  and  _356
REMARK  149  A    between atoms: _362  and  _364
REMARK  150  A    between atoms: _364  and  _365
REMARK  151  A    between atoms: _368  and  _369
REMARK  152  A    between atoms: _374  and  _376
REMARK  153  A    between atoms: _376  and  _377
REMARK  154  A    between atoms: _376  and  _379
REMARK  155  A    between atoms: _379  and  _380
REMARK  156  A    between atoms: _385  and  _386
REMARK  157  A    between atoms: _388  and  _390
REMARK  158  A    between atoms: _390  and  _391
REMARK  159  A    between atoms: _390  and  _393
REMARK  160  A    between atoms: _393  and  _394
REMARK  161  A    between atoms: _394  and  _395
REMARK  162  A    between atoms: _398  and  _400
REMARK  163  A    between atoms: _400  and  _401
REMARK  164  A    between atoms: _400  and  _403
REMARK  165  A    between atoms: _406  and  _408
REMARK  166  A    between atoms: _408  and  _409
REMARK  167  A    between atoms: _408  and  _411
REMARK  168  A    between atoms: _411  and  _412
REMARK  169  A    between atoms: _415  and  _417
REMARK  170  A    between atoms: _417  and  _418
REMARK  171  A    between atoms: _417  and  _420
REMARK  172  A    between atoms: _420  and  _421
REMARK  173  A    between atoms: _421  and  _422
REMARK  174  A    between atoms: _422  and  _423
REMARK  175  A    between atoms: _432  and  _434
REMARK  176  A    between atoms: _434  and  _435
REMARK  177  A    between atoms: _434  and  _437
REMARK  178  A    between atoms: _437  and  _438
REMARK  179  A    between atoms: _443  and  _445
REMARK  180  A    between atoms: _445  and  _446
REMARK  181  A    between atoms: _445  and  _448
REMARK  182  A    between atoms: _448  and  _449
REMARK  183  A    between atoms: _451  and  _453
REMARK  184  A    between atoms: _453  and  _454
REMARK  185  A    between atoms: _453  and  _456
REMARK  186  A    between atoms: _456  and  _457
REMARK  187  A    between atoms: _460  and  _462
REMARK  188  A    between atoms: _462  and  _463
REMARK  189  A    between atoms: _465  and  _467
REMARK  190  A    between atoms: _467  and  _468
REMARK  191  A    between atoms: _467  and  _470
REMARK  192  A    between atoms: _473  and  _475
REMARK  193  A    between atoms: _475  and  _476
REMARK  194  A    between atoms: _475  and  _478
REMARK  195  A    between atoms: _478  and  _479
REMARK  196  A    between atoms: _482  and  _484
REMARK  197  A    between atoms: _484  and  _485
REMARK  198  A    between atoms: _484  and  _487
REMARK  199  A    between atoms: _487  and  _488
REMARK  200  A    between atoms: _492  and  _493
REMARK  201  A    between atoms: _498  and  _500
REMARK  202  A    between atoms: _500  and  _501
REMARK  203  A    between atoms: _503  and  _505
REMARK  204  A    between atoms: _505  and  _506
REMARK  205  A    between atoms: _505  and  _508
REMARK  206  A    between atoms: _511  and  _513
REMARK  207  A    between atoms: _513  and  _514
REMARK  208  A    between atoms: _513  and  _516
REMARK  209  A    between atoms: _516  and  _517
REMARK  210  A    between atoms: _517  and  _518
REMARK  211  A    between atoms: _518  and  _519
REMARK  212  A    between atoms: _529  and  _530
REMARK  213  A    between atoms: _535  and  _537
REMARK  214  A    between atoms: _537  and  _538
REMARK  215  A    between atoms: _537  and  _540
REMARK  216  A    between atoms: _540  and  _541
REMARK  217  A    between atoms: _546  and  _548
REMARK  218  A    between atoms: _548  and  _549
REMARK  219  A    between atoms: _548  and  _551
REMARK  220  A    between atoms: _551  and  _552
REMARK  221  A    between atoms: _554  and  _556
REMARK  222  A    between atoms: _556  and  _557
REMARK  223  A    between atoms: _556  and  _559
REMARK  224  A    between atoms: _559  and  _560
REMARK  225  A    between atoms: _562  and  _564
REMARK  226  A    between atoms: _564  and  _565
REMARK  227  A    between atoms: _564  and  _567
REMARK  228  A    between atoms: _567  and  _568
REMARK  229  A    between atoms: _571  and  _573
REMARK  230  A    between atoms: _573  and  _574
REMARK  231  A    between atoms: _573  and  _576
REMARK  232  A    between atoms: _576  and  _577
REMARK  233  A    between atoms: _583  and  _585
REMARK  234  A    between atoms: _585  and  _586
REMARK  235  A    between atoms: _585  and  _588
REMARK  236  A    between atoms: _588  and  _589
REMARK  237  A    between atoms: _594  and  _596
REMARK  238  A    between atoms: _596  and  _597
REMARK  239  A    between atoms: _599  and  _601
REMARK  240  A    between atoms: _601  and  _602
REMARK  241  A    between atoms: _601  and  _604
REMARK  242  A    between atoms: _604  and  _605
REMARK  243  A    between atoms: _605  and  _606
REMARK  244  A    between atoms: _606  and  _607
REMARK  245  A    between atoms: _616  and  _618
REMARK  246  A    between atoms: _618  and  _619
REMARK  247  A    between atoms: _618  and  _621
REMARK  248  A    between atoms: _621  and  _622
REMARK  249  A    between atoms: _625  and  _627
REMARK  250  A    between atoms: _627  and  _628
REMARK  251  A    between atoms: _627  and  _630
REMARK  252  A    between atoms: _630  and  _631
REMARK                            x       y       z     vdW  Elec       q    Type
REMARK                         _______ _______ _______ _____ _____    ______ ____
ROOT
ATOM      1  CA  ARG A   3       7.769 -48.494  10.776  0.00  0.00    +0.149 C 
ENDROOT
BRANCH   1   2
ATOM      2  C   ARG A   3       8.254 -49.968  10.820  0.00  0.00    +0.241 C 
ATOM      3  O   ARG A   3       7.963 -50.677  11.831  0.00  0.00    -0.273 OA
ATOM      4  N   HIS A   4       8.954 -50.384   9.751  0.00  0.00    -0.297 N 
ATOM      5  H   HIS A   4       9.030 -49.746   8.933  0.00  0.00    +0.150 HD
BRANCH   4   6
ATOM      6  CA  HIS A   4       9.617 -51.692   9.678  0.00  0.00    +0.155 C 
BRANCH   6   7
ATOM      7  C   HIS A   4       8.639 -52.869   9.637  0.00  0.00    +0.241 C 
ATOM      8  O   HIS A   4       9.090 -54.000   9.743  0.00  0.00    -0.273 OA
ATOM      9  N   SER A   5       7.327 -52.642   9.562  0.00  0.00    -0.295 N 
ATOM     10  H   SER A   5       6.976 -51.666   9.491  0.00  0.00    +0.150 HD
BRANCH   9  11
ATOM     11  CA  SER A   5       6.378 -53.754   9.579  0.00  0.00    +0.178 C 
BRANCH  11  12
ATOM     12  C   SER A   5       6.284 -54.355   8.153  0.00  0.00    +0.243 C 
ATOM     13  N   ILE A   6       7.075 -55.409   7.940  0.00  0.00    -0.298 N 
ATOM     14  H   ILE A   6       7.721 -55.737   8.686  0.00  0.00    +0.150 HD
ATOM     15  O   SER A   5       5.483 -53.948   7.289  0.00  0.00    -0.273 OA
BRANCH  13  16
ATOM     16  CA  ILE A   6       7.027 -56.096   6.657  0.00  0.00    +0.137 C 
BRANCH  16  17
ATOM     17  CB  ILE A   6       8.170 -57.148   6.596  0.00  0.00    +0.026 C 
ATOM     18  CG2 ILE A   6       8.074 -57.986   5.370  0.00  0.00    +0.002 C 
BRANCH  17  19
ATOM     19  CG1 ILE A   6       9.525 -56.455   6.643  0.00  0.00    +0.002 C 
ATOM     20  CD1 ILE A   6      10.621 -57.385   7.071  0.00  0.00    +0.000 C 
ENDBRANCH  17  19
ENDBRANCH  16  17
BRANCH  16  21
ATOM     21  C   ILE A   6       5.622 -56.753   6.524  0.00  0.00    +0.227 C 
ATOM     22  O   ILE A   6       5.069 -56.793   5.428  0.00  0.00    -0.286 OA
ENDBRANCH  16  21
ENDBRANCH  13  16
ENDBRANCH  11  12
BRANCH  11  23
ATOM     23  CB  SER A   5       5.011 -53.289  10.078  0.00  0.00    +0.166 C 
BRANCH  23  24
ATOM     24  OG  SER A   5       4.078 -54.376  10.113  0.00  0.00    -0.380 OA
ATOM     25  H   SER A   5       4.416 -55.080  10.722  0.00  0.00    +0.211 HD
ENDBRANCH  23  24
ENDBRANCH  11  23
ENDBRANCH   9  11
ENDBRANCH   6   7
BRANCH   6  26
ATOM     26  CB  HIS A   4      10.515 -51.934  10.892  0.00  0.00    +0.076 C 
BRANCH  26  27
ATOM     27  CG  HIS A   4      11.255 -50.719  11.342  0.00  0.00    +0.082 A 
ATOM     28  CD2 HIS A   4      11.386 -50.162  12.566  0.00  0.00    +0.115 A 
ATOM     29  NE2 HIS A   4      12.146 -49.032  12.410  0.00  0.00    -0.221 NA
ATOM     30  CE1 HIS A   4      12.469 -48.905  11.145  0.00  0.00    +0.199 A 
ATOM     31  ND1 HIS A   4      11.953 -49.920  10.474  0.00  0.00    -0.227 NA
ENDBRANCH  26  27
ENDBRANCH   6  26
ENDBRANCH   4   6
ENDBRANCH   1   2
BRANCH   1  33
ATOM     32  C   THR A   2       5.460 -49.180  10.357  0.00  0.00    +0.243 C 
ATOM     33  N   ARG A   3       6.308 -48.366  10.964  0.00  0.00    -0.297 N 
ATOM     34  H   ARG A   3       5.939 -47.620  11.587  0.00  0.00    +0.150 HD
ATOM     35  O   THR A   2       5.816 -50.093   9.599  0.00  0.00    -0.273 OA
BRANCH  32  36
ATOM     36  CA  THR A   2       3.971 -48.887  10.519  0.00  0.00    +0.176 C 
BRANCH  36  38
ATOM     37  C   VAL A   1       3.855 -48.196   8.163  0.00  0.00    +0.238 C 
ATOM     38  N   THR A   2       3.374 -48.915   9.176  0.00  0.00    -0.295 N 
ATOM     39  H   THR A   2       2.544 -49.519   9.010  0.00  0.00    +0.150 HD
ATOM     40  O   VAL A   1       4.898 -47.496   8.246  0.00  0.00    -0.274 OA
BRANCH  37  41
ATOM     41  CA  VAL A   1       3.088 -48.332   6.853  0.00  0.00    +0.145 C 
BRANCH  41  42
ATOM     42  CB  VAL A   1       3.792 -49.369   5.922  0.00  0.00    +0.025 C 
ATOM     43  CG2 VAL A   1       4.100 -50.674   6.659  0.00  0.00    +0.002 C 
ATOM     44  CG1 VAL A   1       2.978 -49.596   4.619  0.00  0.00    +0.002 C 
ENDBRANCH  41  42
BRANCH  41  45
ATOM     45  N   VAL A   1       3.049 -47.017   6.215  0.00  0.00    -0.238 NA
ATOM     46  H   VAL A   1       3.438 -46.892   5.259  0.00  0.00    +0.142 HD
ENDBRANCH  41  45
ENDBRANCH  37  41
ENDBRANCH  36  38
BRANCH  36  47
ATOM     47  CB  THR A   2       3.340 -49.946  11.383  0.00  0.00    +0.137 C 
ATOM     48  CG2 THR A   2       4.000 -49.986  12.768  0.00  0.00    +0.034 C 
BRANCH  47  49
ATOM     49  OG1 THR A   2       1.947 -49.657  11.578  0.00  0.00    -0.382 OA
ATOM     50  HG1 THR A   2       1.489 -49.637  10.700  0.00  0.00    +0.210 HD
ENDBRANCH  47  49
ENDBRANCH  36  47
ENDBRANCH  32  36
ENDBRANCH   1  33
BRANCH   1  51
ATOM     51  CB  ARG A   3       8.532 -47.691  11.789  0.00  0.00    +0.033 C 
BRANCH  51  52
ATOM     52  CG  ARG A   3       8.214 -47.945  13.260  0.00  0.00    +0.045 C 
BRANCH  52  53
ATOM     53  CD  ARG A   3       8.895 -46.950  14.162  0.00  0.00    +0.174 C 
BRANCH  53  54
ATOM     54  NE  ARG A   3      10.331 -47.092  14.032  0.00  0.00    -0.265 N 
ATOM     55  CZ  ARG A   3      11.235 -46.165  14.344  0.00  0.00    +0.342 C 
ATOM     56  NH2 ARG A   3      10.901 -45.022  14.894  0.00  0.00    -0.292 N 
ATOM     57 HH21 ARG A   3      11.635 -44.322  15.124  0.00  0.00    +0.255 HD
ATOM     58 HH22 ARG A   3       9.903 -44.816  15.100  0.00  0.00    +0.255 HD
ATOM     59  NH1 ARG A   3      12.496 -46.424  14.106  0.00  0.00    -0.292 N 
ATOM     60 HH11 ARG A   3      13.225 -45.719  14.339  0.00  0.00    +0.255 HD
ATOM     61 HH12 ARG A   3      12.769 -47.334  13.684  0.00  0.00    +0.255 HD
ATOM     62  HE  ARG A   3      10.687 -47.997  13.663  0.00  0.00    +0.259 HD
ENDBRANCH  53  54
ENDBRANCH  52  53
ENDBRANCH  51  52
ENDBRANCH   1  51
TORSDOF 25
REMARK  Name = ../refined-set-2016/2wr8/2wr8_pocket.pdb
REMARK  252 active torsions:
REMARK  status: ('A' for Active; 'I' for Inactive)
REMARK    1  A    between atoms: _1  and  _3
REMARK    2  A    between atoms: _3  and  _4
REMARK    3  A    between atoms: _3  and  _6
REMARK    4  A    between atoms: _6  and  _7
REMARK    5  A    between atoms: _13  and  _15
REMARK    6  A    between atoms: _15  and  _16
REMARK    7  A    between atoms: _15  and  _18
REMARK    8  A    between atoms: _18  and  _19
REMARK    9  A    between atoms: _24  and  _25
REMARK   10  A    between atoms: _27  and  _29
REMARK   11  A    between atoms: _29  and  _30
REMARK   12  A    between atoms: _29  and  _32
REMARK   13  A    between atoms: _32  and  _33
REMARK   14  A    between atoms: _36  and  _38
REMARK   15  A    between atoms: _38  and  _39
REMARK   16  A    between atoms: _38  and  _41
REMARK   17  A    between atoms: _41  and  _42
REMARK   18  A    between atoms: _45  and  _47
REMARK   19  A    between atoms: _47  and  _48
REMARK   20  A    between atoms: _47  and  _50
REMARK   21  A    between atoms: _50  and  _51
REMARK   22  A    between atoms: _57  and  _59
REMARK   23  A    between atoms: _59  and  _60
REMARK   24  A    between atoms: _62  and  _64
REMARK   25  A    between atoms: _64  and  _65
REMARK   26  A    between atoms: _64  and  _67
REMARK   27  A    between atoms: _67  and  _68
REMARK   28  A    between atoms: _73  and  _75
REMARK   29  A    between atoms: _75  and  _76
REMARK   30  A    between atoms: _75  and  _78
REMARK   31  A    between atoms: _81  and  _83
REMARK   32  A    between atoms: _83  and  _84
REMARK   33  A    between atoms: _83  and  _86
REMARK   34  A    between atoms: _86  and  _87
REMARK   35  A    between atoms: _90  and  _92
REMARK   36  A    between atoms: _92  and  _93
REMARK   37  A    between atoms: _92  and  _95
REMARK   38  A    between atoms: _95  and  _96
REMARK   39  A    between atoms: _96  and  _97
REMARK   40  A    between atoms: _100  and  _102
REMARK   41  A    between atoms: _102  and  _103
REMARK   42  A    between atoms: _102  and  _105
REMARK   43  A    between atoms: _105  and  _106
REMARK   44  A    between atoms: _109  and  _111
REMARK   45  A    between atoms: _111  and  _112
REMARK   46  A    between atoms: _111  and  _114
REMARK   47  A    between atoms: _114  and  _115
REMARK   48  A    between atoms: _120  and  _121
REMARK   49  A    between atoms: _123  and  _125
REMARK   50  A    between atoms: _125  and  _126
REMARK   51  A    between atoms: _128  and  _130
REMARK   52  A    between atoms: _130  and  _131
REMARK   53  A    between atoms: _130  and  _133
REMARK   54  A    between atoms: _133  and  _134
REMARK   55  A    between atoms: _137  and  _139
REMARK   56  A    between atoms: _139  and  _140
REMARK   57  A    between atoms: _139  and  _142
REMARK   58  A    between atoms: _145  and  _147
REMARK   59  A    between atoms: _147  and  _148
REMARK   60  A    between atoms: _147  and  _150
REMARK   61  A    between atoms: _150  and  _151
REMARK   62  A    between atoms: _151  and  _152
REMARK   63  A    between atoms: _152  and  _153
REMARK   64  A    between atoms: _153  and  _154
REMARK   65  A    between atoms: _158  and  _160
REMARK   66  A    between atoms: _160  and  _161
REMARK   67  A    between atoms: _163  and  _165
REMARK   68  A    between atoms: _165  and  _166
REMARK   69  A    between atoms: _165  and  _168
REMARK   70  A    between atoms: _168  and  _169
REMARK   71  A    between atoms: _169  and  _170
REMARK   72  A    between atoms: _173  and  _175
REMARK   73  A    between atoms: _175  and  _176
REMARK   74  A    between atoms: _175  and  _178
REMARK   75  A    between atoms: _178  and  _179
REMARK   76  A    between atoms: _182  and  _184
REMARK   77  A    between atoms: _184  and  _185
REMARK   78  A    between atoms: _184  and  _187
REMARK   79  A    between atoms: _187  and  _188
REMARK   80  A    between atoms: _192  and  _193
REMARK   81  A    between atoms: _198  and  _200
REMARK   82  A    between atoms: _200  and  _201
REMARK   83  A    between atoms: _203  and  _205
REMARK   84  A    between atoms: _205  and  _206
REMARK   85  A    between atoms: _205  and  _208
REMARK   86  A    between atoms: _208  and  _209
REMARK   87  A    between atoms: _211  and  _213
REMARK   88  A    between atoms: _213  and  _214
REMARK   89  A    between atoms: _213  and  _216
REMARK   90  A    between atoms: _216  and  _217
REMARK   91  A    between atoms: _222  and  _224
REMARK   92  A    between atoms: _224  and  _225
REMARK   93  A    between atoms: _224  and  _227
REMARK   94  A    between atoms: _227  and  _228
REMARK   95  A    between atoms: _231  and  _233
REMARK   96  A    between atoms: _233  and  _234
REMARK   97  A    between atoms: _233  and  _236
REMARK   98  A    between atoms: _236  and  _237
REMARK   99  A    between atoms: _242  and  _243
REMARK  100  A    between atoms: _245  and  _247
REMARK  101  A    between atoms: _247  and  _248
REMARK  102  A    between atoms: _247  and  _250
REMARK  103  A    between atoms: _250  and  _251
REMARK  104  A    between atoms: _251  and  _252
REMARK  105  A    between atoms: _255  and  _257
REMARK  106  A    between atoms: _257  and  _258
REMARK  107  A    between atoms: _257  and  _260
REMARK  108  A    between atoms: _260  and  _261
REMARK  109  A    between atoms: _264  and  _266
REMARK  110  A    between atoms: _266  and  _267
REMARK  111  A    between atoms: _270  and  _272
REMARK  112  A    between atoms: _272  and  _273
REMARK  113  A    between atoms: _272  and  _275
REMARK  114  A    between atoms: _278  and  _280
REMARK  115  A    between atoms: _280  and  _281
REMARK  116  A    between atoms: _280  and  _283
REMARK  117  A    between atoms: _283  and  _284
REMARK  118  A    between atoms: _289  and  _291
REMARK  119  A    between atoms: _291  and  _292
REMARK  120  A    between atoms: _291  and  _294
REMARK  121  A    between atoms: _294  and  _295
REMARK  122  A    between atoms: _295  and  _296
REMARK  123  A    between atoms: _298  and  _300
REMARK  124  A    between atoms: _300  and  _301
REMARK  125  A    between atoms: _303  and  _305
REMARK  126  A    between atoms: _305  and  _306
REMARK  127  A    between atoms: _305  and  _308
REMARK  128  A    between atoms: _308  and  _309
REMARK  129  A    between atoms: _311  and  _313
REMARK  130  A    between atoms: _313  and  _314
REMARK  131  A    between atoms: _317  and  _319
REMARK  132  A    between atoms: _319  and  _320
REMARK  133  A    between atoms: _323  and  _325
REMARK  134  A    between atoms: _325  and  _326
REMARK  135  A    between atoms: _325  and  _328
REMARK  136  A    between atoms: _328  and  _329
REMARK  137  A    between atoms: _332  and  _334
REMARK  138  A    between atoms: _334  and  _335
REMARK  139  A    between atoms: _334  and  _337
REMARK  140  A    between atoms: _337  and  _338
REMARK  141  A    between atoms: _341  and  _343
REMARK  142  A    between atoms: _343  and  _344
REMARK  143  A    between atoms: _343  and  _346
REMARK  144  A    between atoms: _346  and  _347
REMARK  145  A    between atoms: _350  and  _352
REMARK  146  A    between atoms: _352  and  _353
REMARK  147  A    between atoms: _352  and  _355
REMARK  148  A    between atoms: _355  and  _356
REMARK  149  A    between atoms: _362  and  _364
REMARK  150  A    between atoms: _364  and  _365
REMARK  151  A    between atoms: _368  and  _369
REMARK  152  A    between atoms: _374  and  _376
REMARK  153  A    between atoms: _376  and  _377
REMARK  154  A    between atoms: _376  and  _379
REMARK  155  A    between atoms: _379  and  _380
REMARK  156  A    between atoms: _385  and  _386
REMARK  157  A    between atoms: _388  and  _390
REMARK  158  A    between atoms: _390  and  _391
REMARK  159  A    between atoms: _390  and  _393
REMARK  160  A    between atoms: _393  and  _394
REMARK  161  A    between atoms: _394  and  _395
REMARK  162  A    between atoms: _398  and  _400
REMARK  163  A    between atoms: _400  and  _401
REMARK  164  A    between atoms: _400  and  _403
REMARK  165  A    between atoms: _406  and  _408
REMARK  166  A    between atoms: _408  and  _409
REMARK  167  A    between atoms: _408  and  _411
REMARK  168  A    between atoms: _411  and  _412
REMARK  169  A    between atoms: _415  and  _417
REMARK  170  A    between atoms: _417  and  _418
REMARK  171  A    between atoms: _417  and  _420
REMARK  172  A    between atoms: _420  and  _421
REMARK  173  A    between atoms: _421  and  _422
REMARK  174  A    between atoms: _422  and  _423
REMARK  175  A    between atoms: _432  and  _434
REMARK  176  A    between atoms: _434  and  _435
REMARK  177  A    between atoms: _434  and  _437
REMARK  178  A    between atoms: _437  and  _438
REMARK  179  A    between atoms: _443  and  _445
REMARK  180  A    between atoms: _445  and  _446
REMARK  181  A    between atoms: _445  and  _448
REMARK  182  A    between atoms: _448  and  _449
REMARK  183  A    between atoms: _451  and  _453
REMARK  184  A    between atoms: _453  and  _454
REMARK  185  A    between atoms: _453  and  _456
REMARK  186  A    between atoms: _456  and  _457
REMARK  187  A    between atoms: _460  and  _462
REMARK  188  A    between atoms: _462  and  _463
REMARK  189  A    between atoms: _465  and  _467
REMARK  190  A    between atoms: _467  and  _468
REMARK  191  A    between atoms: _467  and  _470
REMARK  192  A    between atoms: _473  and  _475
REMARK  193  A    between atoms: _475  and  _476
REMARK  194  A    between atoms: _475  and  _478
REMARK  195  A    between atoms: _478  and  _479
REMARK  196  A    between atoms: _482  and  _484
REMARK  197  A    between atoms: _484  and  _485
REMARK  198  A    between atoms: _484  and  _487
REMARK  199  A    between atoms: _487  and  _488
REMARK  200  A    between atoms: _492  and  _493
REMARK  201  A    between atoms: _498  and  _500
REMARK  202  A    between atoms: _500  and  _501
REMARK  203  A    between atoms: _503  and  _505
REMARK  204  A    between atoms: _505  and  _506
REMARK  205  A    between atoms: _505  and  _508
REMARK  206  A    between atoms: _511  and  _513
REMARK  207  A    between atoms: _513  and  _514
REMARK  208  A    between atoms: _513  and  _516
REMARK  209  A    between atoms: _516  and  _517
REMARK  210  A    between atoms: _517  and  _518
REMARK  211  A    between atoms: _518  and  _519
REMARK  212  A    between atoms: _529  and  _530
REMARK  213  A    between atoms: _535  and  _537
REMARK  214  A    between atoms: _537  and  _538
REMARK  215  A    between atoms: _537  and  _540
REMARK  216  A    between atoms: _540  and  _541
REMARK  217  A    between atoms: _546  and  _548
REMARK  218  A    between atoms: _548  and  _549
REMARK  219  A    between atoms: _548  and  _551
REMARK  220  A    between atoms: _551  and  _552
REMARK  221  A    between atoms: _554  and  _556
REMARK  222  A    between atoms: _556  and  _557
REMARK  223  A    between atoms: _556  and  _559
REMARK  224  A    between atoms: _559  and  _560
REMARK  225  A    between atoms: _562  and  _564
REMARK  226  A    between atoms: _564  and  _565
REMARK  227  A    between atoms: _564  and  _567
REMARK  228  A    between atoms: _567  and  _568
REMARK  229  A    between atoms: _571  and  _573
REMARK  230  A    between atoms: _573  and  _574
REMARK  231  A    between atoms: _573  and  _576
REMARK  232  A    between atoms: _576  and  _577
REMARK  233  A    between atoms: _583  and  _585
REMARK  234  A    between atoms: _585  and  _586
REMARK  235  A    between atoms: _585  and  _588
REMARK  236  A    between atoms: _588  and  _589
REMARK  237  A    between atoms: _594  and  _596
REMARK  238  A    between atoms: _596  and  _597
REMARK  239  A    between atoms: _599  and  _601
REMARK  240  A    between atoms: _601  and  _602
REMARK  241  A    between atoms: _601  and  _604
REMARK  242  A    between atoms: _604  and  _605
REMARK  243  A    between atoms: _605  and  _606
REMARK  244  A    between atoms: _606  and  _607
REMARK  245  A    between atoms: _616  and  _618
REMARK  246  A    between atoms: _618  and  _619
REMARK  247  A    between atoms: _618  and  _621
REMARK  248  A    between atoms: _621  and  _622
REMARK  249  A    between atoms: _625  and  _627
REMARK  250  A    between atoms: _627  and  _628
REMARK  251  A    between atoms: _627  and  _630
REMARK  252  A    between atoms: _630  and  _631
REMARK                            x       y       z     vdW  Elec       q    Type
REMARK                         _______ _______ _______ _____ _____    ______ ____
ROOT
ATOM      1  CA  ASP A   4      13.470 -52.580   4.608  0.00  0.00    +0.160 C 
ENDROOT
BRANCH   1   2
ATOM      2  C   ASP A   4      14.333 -52.351   5.837  0.00  0.00    +0.244 C 
ATOM      3  N   PRO A   5      13.878 -52.850   6.985  0.00  0.00    -0.272 N 
ATOM      4  CA  PRO A   5      14.692 -52.672   8.220  0.00  0.00    +0.152 C 
ATOM      5  CB  PRO A   5      13.876 -53.395   9.280  0.00  0.00    +0.031 C 
ATOM      6  CG  PRO A   5      12.976 -54.324   8.563  0.00  0.00    +0.024 C 
ATOM      7  CD  PRO A   5      12.659 -53.638   7.233  0.00  0.00    +0.094 C 
ATOM      8  O   ASP A   4      15.424 -51.746   5.775  0.00  0.00    -0.273 OA
BRANCH   4   9
ATOM      9  C   PRO A   5      16.088 -53.311   8.157  0.00  0.00    +0.241 C 
ATOM     10  O   PRO A   5      17.051 -52.812   8.761  0.00  0.00    -0.273 OA
ATOM     11  N   GLY A   6      16.167 -54.406   7.420  0.00  0.00    -0.295 N 
ATOM     12  H   GLY A   6      15.315 -54.731   6.921  0.00  0.00    +0.150 HD
BRANCH  11  13
ATOM     13  CA  GLY A   6      17.409 -55.186   7.274  0.00  0.00    +0.176 C 
BRANCH  13  14
ATOM     14  C   GLY A   6      18.275 -54.802   6.124  0.00  0.00    +0.243 C 
ATOM     15  O   GLY A   6      19.138 -55.601   5.718  0.00  0.00    -0.273 OA
ATOM     16  N   VAL A   7      18.090 -53.584   5.611  0.00  0.00    -0.298 N 
ATOM     17  H   VAL A   7      17.324 -52.998   5.999  0.00  0.00    +0.150 HD
BRANCH  16  18
ATOM     18  CA  VAL A   7      18.896 -53.037   4.546  0.00  0.00    +0.137 C 
BRANCH  18  19
ATOM     19  CB  VAL A   7      18.475 -51.589   4.161  0.00  0.00    +0.026 C 
ATOM     20  CG2 VAL A   7      18.631 -50.611   5.377  0.00  0.00    +0.002 C 
ATOM     21  CG1 VAL A   7      19.275 -51.121   2.985  0.00  0.00    +0.002 C 
ENDBRANCH  18  19
BRANCH  18  22
ATOM     22  C   VAL A   7      20.367 -53.044   4.948  0.00  0.00    +0.227 C 
ATOM     23  O   VAL A   7      20.697 -52.780   6.107  0.00  0.00    -0.286 OA
ENDBRANCH  18  22
ENDBRANCH  16  18
ENDBRANCH  13  14
ENDBRANCH  11  13
ENDBRANCH   4   9
ENDBRANCH   1   2
BRANCH   1  25
ATOM     24  C   ILE A   3      11.009 -52.586   4.250  0.00  0.00    +0.241 C 
ATOM     25  N   ASP A   4      12.104 -51.993   4.750  0.00  0.00    -0.297 N 
ATOM     26  H   ASP A   4      11.997 -51.090   5.256  0.00  0.00    +0.150 HD
ATOM     27  O   ILE A   3      10.967 -53.791   4.039  0.00  0.00    -0.273 OA
BRANCH  24  28
ATOM     28  CA  ILE A   3       9.770 -51.729   3.983  0.00  0.00    +0.149 C 
BRANCH  28  30
ATOM     29  C   VAL A   2       9.734 -50.629   1.796  0.00  0.00    +0.241 C 
ATOM     30  N   ILE A   3       9.688 -51.741   2.519  0.00  0.00    -0.297 N 
ATOM     31  H   ILE A   3       9.590 -52.654   2.030  0.00  0.00    +0.150 HD
ATOM     32  O   VAL A   2       9.448 -49.508   2.229  0.00  0.00    -0.273 OA
BRANCH  29  33
ATOM     33  CA  VAL A   2      10.046 -50.848   0.318  0.00  0.00    +0.148 C 
BRANCH  33  35
ATOM     34  C   GLY A   1       8.723 -51.947  -1.404  0.00  0.00    +0.240 C 
ATOM     35  N   VAL A   2       8.814 -51.036  -0.441  0.00  0.00    -0.297 N 
ATOM     36  H   VAL A   2       7.988 -50.443  -0.223  0.00  0.00    +0.150 HD
ATOM     37  O   GLY A   1       9.620 -52.746  -1.662  0.00  0.00    -0.274 OA
BRANCH  34  38
ATOM     38  CA  GLY A   1       7.429 -52.086  -2.120  0.00  0.00    +0.169 C 
BRANCH  38  39
ATOM     39  N   GLY A   1       7.670 -52.054  -3.588  0.00  0.00    -0.236 NA
ATOM     40  H   GLY A   1       8.362 -52.713  -3.998  0.00  0.00    +0.142 HD
ENDBRANCH  38  39
ENDBRANCH  34  38
ENDBRANCH  33  35
BRANCH  33  41
ATOM     41  CB  VAL A   2      10.960 -49.714  -0.231  0.00  0.00    +0.027 C 
ATOM     42  CG2 VAL A   2      12.329 -49.836   0.401  0.00  0.00    +0.002 C 
ATOM     43  CG1 VAL A   2      11.084 -49.681  -1.836  0.00  0.00    +0.002 C 
ENDBRANCH  33  41
ENDBRANCH  29  33
ENDBRANCH  28  30
BRANCH  28  44
ATOM     44  CB  ILE A   3       8.502 -52.388   4.566  0.00  0.00    +0.027 C 
ATOM     45  CG2 ILE A   3       8.633 -52.489   6.124  0.00  0.00    +0.002 C 
BRANCH  44  46
ATOM     46  CG1 ILE A   3       7.204 -51.585   4.273  0.00  0.00    +0.002 C 
ATOM     47  CD1 ILE A   3       6.645 -51.670   2.909  0.00  0.00    +0.000 C 
ENDBRANCH  44  46
ENDBRANCH  28  44
ENDBRANCH  24  28
ENDBRANCH   1  25
BRANCH   1  48
ATOM     48  CB  ASP A   4      14.092 -51.931   3.337  0.00  0.00    +0.143 C 
BRANCH  48  49
ATOM     49  CG  ASP A   4      15.262 -52.675   2.756  0.00  0.00    +0.367 C 
ATOM     50  OD2 ASP A   4      15.453 -53.838   3.092  0.00  0.00    -0.246 OA
ATOM     51  OD1 ASP A   4      15.936 -52.075   1.865  0.00  0.00    -0.246 OA
ENDBRANCH  48  49
ENDBRANCH   1  48
TORSDOF 19
REMARK  Name = ../refined-set-2016/2wr8/2wr8_pocket.pdb
REMARK  252 active torsions:
REMARK  status: ('A' for Active; 'I' for Inactive)
REMARK    1  A    between atoms: _1  and  _3
REMARK    2  A    between atoms: _3  and  _4
REMARK    3  A    between atoms: _3  and  _6
REMARK    4  A    between atoms: _6  and  _7
REMARK    5  A    between atoms: _13  and  _15
REMARK    6  A    between atoms: _15  and  _16
REMARK    7  A    between atoms: _15  and  _18
REMARK    8  A    between atoms: _18  and  _19
REMARK    9  A    between atoms: _24  and  _25
REMARK   10  A    between atoms: _27  and  _29
REMARK   11  A    between atoms: _29  and  _30
REMARK   12  A    between atoms: _29  and  _32
REMARK   13  A    between atoms: _32  and  _33
REMARK   14  A    between atoms: _36  and  _38
REMARK   15  A    between atoms: _38  and  _39
REMARK   16  A    between atoms: _38  and  _41
REMARK   17  A    between atoms: _41  and  _42
REMARK   18  A    between atoms: _45  and  _47
REMARK   19  A    between atoms: _47  and  _48
REMARK   20  A    between atoms: _47  and  _50
REMARK   21  A    between atoms: _50  and  _51
REMARK   22  A    between atoms: _57  and  _59
REMARK   23  A    between atoms: _59  and  _60
REMARK   24  A    between atoms: _62  and  _64
REMARK   25  A    between atoms: _64  and  _65
REMARK   26  A    between atoms: _64  and  _67
REMARK   27  A    between atoms: _67  and  _68
REMARK   28  A    between atoms: _73  and  _75
REMARK   29  A    between atoms: _75  and  _76
REMARK   30  A    between atoms: _75  and  _78
REMARK   31  A    between atoms: _81  and  _83
REMARK   32  A    between atoms: _83  and  _84
REMARK   33  A    between atoms: _83  and  _86
REMARK   34  A    between atoms: _86  and  _87
REMARK   35  A    between atoms: _90  and  _92
REMARK   36  A    between atoms: _92  and  _93
REMARK   37  A    between atoms: _92  and  _95
REMARK   38  A    between atoms: _95  and  _96
REMARK   39  A    between atoms: _96  and  _97
REMARK   40  A    between atoms: _100  and  _102
REMARK   41  A    between atoms: _102  and  _103
REMARK   42  A    between atoms: _102  and  _105
REMARK   43  A    between atoms: _105  and  _106
REMARK   44  A    between atoms: _109  and  _111
REMARK   45  A    between atoms: _111  and  _112
REMARK   46  A    between atoms: _111  and  _114
REMARK   47  A    between atoms: _114  and  _115
REMARK   48  A    between atoms: _120  and  _121
REMARK   49  A    between atoms: _123  and  _125
REMARK   50  A    between atoms: _125  and  _126
REMARK   51  A    between atoms: _128  and  _130
REMARK   52  A    between atoms: _130  and  _131
REMARK   53  A    between atoms: _130  and  _133
REMARK   54  A    between atoms: _133  and  _134
REMARK   55  A    between atoms: _137  and  _139
REMARK   56  A    between atoms: _139  and  _140
REMARK   57  A    between atoms: _139  and  _142
REMARK   58  A    between atoms: _145  and  _147
REMARK   59  A    between atoms: _147  and  _148
REMARK   60  A    between atoms: _147  and  _150
REMARK   61  A    between atoms: _150  and  _151
REMARK   62  A    between atoms: _151  and  _152
REMARK   63  A    between atoms: _152  and  _153
REMARK   64  A    between atoms: _153  and  _154
REMARK   65  A    between atoms: _158  and  _160
REMARK   66  A    between atoms: _160  and  _161
REMARK   67  A    between atoms: _163  and  _165
REMARK   68  A    between atoms: _165  and  _166
REMARK   69  A    between atoms: _165  and  _168
REMARK   70  A    between atoms: _168  and  _169
REMARK   71  A    between atoms: _169  and  _170
REMARK   72  A    between atoms: _173  and  _175
REMARK   73  A    between atoms: _175  and  _176
REMARK   74  A    between atoms: _175  and  _178
REMARK   75  A    between atoms: _178  and  _179
REMARK   76  A    between atoms: _182  and  _184
REMARK   77  A    between atoms: _184  and  _185
REMARK   78  A    between atoms: _184  and  _187
REMARK   79  A    between atoms: _187  and  _188
REMARK   80  A    between atoms: _192  and  _193
REMARK   81  A    between atoms: _198  and  _200
REMARK   82  A    between atoms: _200  and  _201
REMARK   83  A    between atoms: _203  and  _205
REMARK   84  A    between atoms: _205  and  _206
REMARK   85  A    between atoms: _205  and  _208
REMARK   86  A    between atoms: _208  and  _209
REMARK   87  A    between atoms: _211  and  _213
REMARK   88  A    between atoms: _213  and  _214
REMARK   89  A    between atoms: _213  and  _216
REMARK   90  A    between atoms: _216  and  _217
REMARK   91  A    between atoms: _222  and  _224
REMARK   92  A    between atoms: _224  and  _225
REMARK   93  A    between atoms: _224  and  _227
REMARK   94  A    between atoms: _227  and  _228
REMARK   95  A    between atoms: _231  and  _233
REMARK   96  A    between atoms: _233  and  _234
REMARK   97  A    between atoms: _233  and  _236
REMARK   98  A    between atoms: _236  and  _237
REMARK   99  A    between atoms: _242  and  _243
REMARK  100  A    between atoms: _245  and  _247
REMARK  101  A    between atoms: _247  and  _248
REMARK  102  A    between atoms: _247  and  _250
REMARK  103  A    between atoms: _250  and  _251
REMARK  104  A    between atoms: _251  and  _252
REMARK  105  A    between atoms: _255  and  _257
REMARK  106  A    between atoms: _257  and  _258
REMARK  107  A    between atoms: _257  and  _260
REMARK  108  A    between atoms: _260  and  _261
REMARK  109  A    between atoms: _264  and  _266
REMARK  110  A    between atoms: _266  and  _267
REMARK  111  A    between atoms: _270  and  _272
REMARK  112  A    between atoms: _272  and  _273
REMARK  113  A    between atoms: _272  and  _275
REMARK  114  A    between atoms: _278  and  _280
REMARK  115  A    between atoms: _280  and  _281
REMARK  116  A    between atoms: _280  and  _283
REMARK  117  A    between atoms: _283  and  _284
REMARK  118  A    between atoms: _289  and  _291
REMARK  119  A    between atoms: _291  and  _292
REMARK  120  A    between atoms: _291  and  _294
REMARK  121  A    between atoms: _294  and  _295
REMARK  122  A    between atoms: _295  and  _296
REMARK  123  A    between atoms: _298  and  _300
REMARK  124  A    between atoms: _300  and  _301
REMARK  125  A    between atoms: _303  and  _305
REMARK  126  A    between atoms: _305  and  _306
REMARK  127  A    between atoms: _305  and  _308
REMARK  128  A    between atoms: _308  and  _309
REMARK  129  A    between atoms: _311  and  _313
REMARK  130  A    between atoms: _313  and  _314
REMARK  131  A    between atoms: _317  and  _319
REMARK  132  A    between atoms: _319  and  _320
REMARK  133  A    between atoms: _323  and  _325
REMARK  134  A    between atoms: _325  and  _326
REMARK  135  A    between atoms: _325  and  _328
REMARK  136  A    between atoms: _328  and  _329
REMARK  137  A    between atoms: _332  and  _334
REMARK  138  A    between atoms: _334  and  _335
REMARK  139  A    between atoms: _334  and  _337
REMARK  140  A    between atoms: _337  and  _338
REMARK  141  A    between atoms: _341  and  _343
REMARK  142  A    between atoms: _343  and  _344
REMARK  143  A    between atoms: _343  and  _346
REMARK  144  A    between atoms: _346  and  _347
REMARK  145  A    between atoms: _350  and  _352
REMARK  146  A    between atoms: _352  and  _353
REMARK  147  A    between atoms: _352  and  _355
REMARK  148  A    between atoms: _355  and  _356
REMARK  149  A    between atoms: _362  and  _364
REMARK  150  A    between atoms: _364  and  _365
REMARK  151  A    between atoms: _368  and  _369
REMARK  152  A    between atoms: _374  and  _376
REMARK  153  A    between atoms: _376  and  _377
REMARK  154  A    between atoms: _376  and  _379
REMARK  155  A    between atoms: _379  and  _380
REMARK  156  A    between atoms: _385  and  _386
REMARK  157  A    between atoms: _388  and  _390
REMARK  158  A    between atoms: _390  and  _391
REMARK  159  A    between atoms: _390  and  _393
REMARK  160  A    between atoms: _393  and  _394
REMARK  161  A    between atoms: _394  and  _395
REMARK  162  A    between atoms: _398  and  _400
REMARK  163  A    between atoms: _400  and  _401
REMARK  164  A    between atoms: _400  and  _403
REMARK  165  A    between atoms: _406  and  _408
REMARK  166  A    between atoms: _408  and  _409
REMARK  167  A    between atoms: _408  and  _411
REMARK  168  A    between atoms: _411  and  _412
REMARK  169  A    between atoms: _415  and  _417
REMARK  170  A    between atoms: _417  and  _418
REMARK  171  A    between atoms: _417  and  _420
REMARK  172  A    between atoms: _420  and  _421
REMARK  173  A    between atoms: _421  and  _422
REMARK  174  A    between atoms: _422  and  _423
REMARK  175  A    between atoms: _432  and  _434
REMARK  176  A    between atoms: _434  and  _435
REMARK  177  A    between atoms: _434  and  _437
REMARK  178  A    between atoms: _437  and  _438
REMARK  179  A    between atoms: _443  and  _445
REMARK  180  A    between atoms: _445  and  _446
REMARK  181  A    between atoms: _445  and  _448
REMARK  182  A    between atoms: _448  and  _449
REMARK  183  A    between atoms: _451  and  _453
REMARK  184  A    between atoms: _453  and  _454
REMARK  185  A    between atoms: _453  and  _456
REMARK  186  A    between atoms: _456  and  _457
REMARK  187  A    between atoms: _460  and  _462
REMARK  188  A    between atoms: _462  and  _463
REMARK  189  A    between atoms: _465  and  _467
REMARK  190  A    between atoms: _467  and  _468
REMARK  191  A    between atoms: _467  and  _470
REMARK  192  A    between atoms: _473  and  _475
REMARK  193  A    between atoms: _475  and  _476
REMARK  194  A    between atoms: _475  and  _478
REMARK  195  A    between atoms: _478  and  _479
REMARK  196  A    between atoms: _482  and  _484
REMARK  197  A    between atoms: _484  and  _485
REMARK  198  A    between atoms: _484  and  _487
REMARK  199  A    between atoms: _487  and  _488
REMARK  200  A    between atoms: _492  and  _493
REMARK  201  A    between atoms: _498  and  _500
REMARK  202  A    between atoms: _500  and  _501
REMARK  203  A    between atoms: _503  and  _505
REMARK  204  A    between atoms: _505  and  _506
REMARK  205  A    between atoms: _505  and  _508
REMARK  206  A    between atoms: _511  and  _513
REMARK  207  A    between atoms: _513  and  _514
REMARK  208  A    between atoms: _513  and  _516
REMARK  209  A    between atoms: _516  and  _517
REMARK  210  A    between atoms: _517  and  _518
REMARK  211  A    between atoms: _518  and  _519
REMARK  212  A    between atoms: _529  and  _530
REMARK  213  A    between atoms: _535  and  _537
REMARK  214  A    between atoms: _537  and  _538
REMARK  215  A    between atoms: _537  and  _540
REMARK  216  A    between atoms: _540  and  _541
REMARK  217  A    between atoms: _546  and  _548
REMARK  218  A    between atoms: _548  and  _549
REMARK  219  A    between atoms: _548  and  _551
REMARK  220  A    between atoms: _551  and  _552
REMARK  221  A    between atoms: _554  and  _556
REMARK  222  A    between atoms: _556  and  _557
REMARK  223  A    between atoms: _556  and  _559
REMARK  224  A    between atoms: _559  and  _560
REMARK  225  A    between atoms: _562  and  _564
REMARK  226  A    between atoms: _564  and  _565
REMARK  227  A    between atoms: _564  and  _567
REMARK  228  A    between atoms: _567  and  _568
REMARK  229  A    between atoms: _571  and  _573
REMARK  230  A    between atoms: _573  and  _574
REMARK  231  A    between atoms: _573  and  _576
REMARK  232  A    between atoms: _576  and  _577
REMARK  233  A    between atoms: _583  and  _585
REMARK  234  A    between atoms: _585  and  _586
REMARK  235  A    between atoms: _585  and  _588
REMARK  236  A    between atoms: _588  and  _589
REMARK  237  A    between atoms: _594  and  _596
REMARK  238  A    between atoms: _596  and  _597
REMARK  239  A    between atoms: _599  and  _601
REMARK  240  A    between atoms: _601  and  _602
REMARK  241  A    between atoms: _601  and  _604
REMARK  242  A    between atoms: _604  and  _605
REMARK  243  A    between atoms: _605  and  _606
REMARK  244  A    between atoms: _606  and  _607
REMARK  245  A    between atoms: _616  and  _618
REMARK  246  A    between atoms: _618  and  _619
REMARK  247  A    between atoms: _618  and  _621
REMARK  248  A    between atoms: _621  and  _622
REMARK  249  A    between atoms: _625  and  _627
REMARK  250  A    between atoms: _627  and  _628
REMARK  251  A    between atoms: _627  and  _630
REMARK  252  A    between atoms: _630  and  _631
REMARK                            x       y       z     vdW  Elec       q    Type
REMARK                         _______ _______ _______ _____ _____    ______ ____
ROOT
ATOM      1  NE  ARG A   1      17.242 -55.333   1.471  0.00  0.00    -0.265 N 
ATOM      2  HE  ARG A   1      16.604 -54.759   2.059  0.00  0.00    +0.259 HD
ATOM      3  CZ  ARG A   1      17.934 -54.705   0.545  0.00  0.00    +0.342 C 
ATOM      4  NH2 ARG A   1      17.725 -53.407   0.383  0.00  0.00    -0.292 N 
ATOM      5 HH21 ARG A   1      17.030 -52.914   0.979  0.00  0.00    +0.255 HD
ATOM      6 HH22 ARG A   1      18.256 -52.881  -0.340  0.00  0.00    +0.255 HD
ATOM      7  NH1 ARG A   1      18.787 -55.346  -0.278  0.00  0.00    -0.292 N 
ATOM      8 HH11 ARG A   1      18.917 -56.374  -0.194  0.00  0.00    +0.255 HD
ATOM      9 HH12 ARG A   1      19.315 -54.812  -0.997  0.00  0.00    +0.255 HD
ENDROOT
BRANCH   1  10
ATOM     10  CD  ARG A   1      17.293 -56.761   1.743  0.00  0.00    +0.174 C 
BRANCH  10  11
ATOM     11  CG  ARG A   1      18.342 -57.146   2.767  0.00  0.00    +0.045 C 
BRANCH  11  12
ATOM     12  CB  ARG A   1      18.409 -58.645   2.877  0.00  0.00    +0.029 C 
BRANCH  12  13
ATOM     13  CA  ARG A   1      19.583 -59.298   2.101  0.00  0.00    +0.133 C 
BRANCH  13  14
ATOM     14  N   ARG A   1      20.831 -58.909   2.729  0.00  0.00    -0.239 NA
ATOM     15  H   ARG A   1      20.813 -58.193   3.483  0.00  0.00    +0.142 HD
ENDBRANCH  13  14
BRANCH  13  16
ATOM     16  C   ARG A   1      19.570 -58.903   0.609  0.00  0.00    +0.224 C 
ATOM     17  O   ARG A   1      20.164 -57.880   0.199  0.00  0.00    -0.287 OA
ENDBRANCH  13  16
ENDBRANCH  12  13
ENDBRANCH  11  12
ENDBRANCH  10  11
ENDBRANCH   1  10
TORSDOF 6
REMARK  Name = ../refined-set-2016/2wr8/2wr8_pocket.pdb
REMARK  252 active torsions:
REMARK  status: ('A' for Active; 'I' for Inactive)
REMARK    1  A    between atoms: _1  and  _3
REMARK    2  A    between atoms: _3  and  _4
REMARK    3  A    between atoms: _3  and  _6
REMARK    4  A    between atoms: _6  and  _7
REMARK    5  A    between atoms: _13  and  _15
REMARK    6  A    between atoms: _15  and  _16
REMARK    7  A    between atoms: _15  and  _18
REMARK    8  A    between atoms: _18  and  _19
REMARK    9  A    between atoms: _24  and  _25
REMARK   10  A    between atoms: _27  and  _29
REMARK   11  A    between atoms: _29  and  _30
REMARK   12  A    between atoms: _29  and  _32
REMARK   13  A    between atoms: _32  and  _33
REMARK   14  A    between atoms: _36  and  _38
REMARK   15  A    between atoms: _38  and  _39
REMARK   16  A    between atoms: _38  and  _41
REMARK   17  A    between atoms: _41  and  _42
REMARK   18  A    between atoms: _45  and  _47
REMARK   19  A    between atoms: _47  and  _48
REMARK   20  A    between atoms: _47  and  _50
REMARK   21  A    between atoms: _50  and  _51
REMARK   22  A    between atoms: _57  and  _59
REMARK   23  A    between atoms: _59  and  _60
REMARK   24  A    between atoms: _62  and  _64
REMARK   25  A    between atoms: _64  and  _65
REMARK   26  A    between atoms: _64  and  _67
REMARK   27  A    between atoms: _67  and  _68
REMARK   28  A    between atoms: _73  and  _75
REMARK   29  A    between atoms: _75  and  _76
REMARK   30  A    between atoms: _75  and  _78
REMARK   31  A    between atoms: _81  and  _83
REMARK   32  A    between atoms: _83  and  _84
REMARK   33  A    between atoms: _83  and  _86
REMARK   34  A    between atoms: _86  and  _87
REMARK   35  A    between atoms: _90  and  _92
REMARK   36  A    between atoms: _92  and  _93
REMARK   37  A    between atoms: _92  and  _95
REMARK   38  A    between atoms: _95  and  _96
REMARK   39  A    between atoms: _96  and  _97
REMARK   40  A    between atoms: _100  and  _102
REMARK   41  A    between atoms: _102  and  _103
REMARK   42  A    between atoms: _102  and  _105
REMARK   43  A    between atoms: _105  and  _106
REMARK   44  A    between atoms: _109  and  _111
REMARK   45  A    between atoms: _111  and  _112
REMARK   46  A    between atoms: _111  and  _114
REMARK   47  A    between atoms: _114  and  _115
REMARK   48  A    between atoms: _120  and  _121
REMARK   49  A    between atoms: _123  and  _125
REMARK   50  A    between atoms: _125  and  _126
REMARK   51  A    between atoms: _128  and  _130
REMARK   52  A    between atoms: _130  and  _131
REMARK   53  A    between atoms: _130  and  _133
REMARK   54  A    between atoms: _133  and  _134
REMARK   55  A    between atoms: _137  and  _139
REMARK   56  A    between atoms: _139  and  _140
REMARK   57  A    between atoms: _139  and  _142
REMARK   58  A    between atoms: _145  and  _147
REMARK   59  A    between atoms: _147  and  _148
REMARK   60  A    between atoms: _147  and  _150
REMARK   61  A    between atoms: _150  and  _151
REMARK   62  A    between atoms: _151  and  _152
REMARK   63  A    between atoms: _152  and  _153
REMARK   64  A    between atoms: _153  and  _154
REMARK   65  A    between atoms: _158  and  _160
REMARK   66  A    between atoms: _160  and  _161
REMARK   67  A    between atoms: _163  and  _165
REMARK   68  A    between atoms: _165  and  _166
REMARK   69  A    between atoms: _165  and  _168
REMARK   70  A    between atoms: _168  and  _169
REMARK   71  A    between atoms: _169  and  _170
REMARK   72  A    between atoms: _173  and  _175
REMARK   73  A    between atoms: _175  and  _176
REMARK   74  A    between atoms: _175  and  _178
REMARK   75  A    between atoms: _178  and  _179
REMARK   76  A    between atoms: _182  and  _184
REMARK   77  A    between atoms: _184  and  _185
REMARK   78  A    between atoms: _184  and  _187
REMARK   79  A    between atoms: _187  and  _188
REMARK   80  A    between atoms: _192  and  _193
REMARK   81  A    between atoms: _198  and  _200
REMARK   82  A    between atoms: _200  and  _201
REMARK   83  A    between atoms: _203  and  _205
REMARK   84  A    between atoms: _205  and  _206
REMARK   85  A    between atoms: _205  and  _208
REMARK   86  A    between atoms: _208  and  _209
REMARK   87  A    between atoms: _211  and  _213
REMARK   88  A    between atoms: _213  and  _214
REMARK   89  A    between atoms: _213  and  _216
REMARK   90  A    between atoms: _216  and  _217
REMARK   91  A    between atoms: _222  and  _224
REMARK   92  A    between atoms: _224  and  _225
REMARK   93  A    between atoms: _224  and  _227
REMARK   94  A    between atoms: _227  and  _228
REMARK   95  A    between atoms: _231  and  _233
REMARK   96  A    between atoms: _233  and  _234
REMARK   97  A    between atoms: _233  and  _236
REMARK   98  A    between atoms: _236  and  _237
REMARK   99  A    between atoms: _242  and  _243
REMARK  100  A    between atoms: _245  and  _247
REMARK  101  A    between atoms: _247  and  _248
REMARK  102  A    between atoms: _247  and  _250
REMARK  103  A    between atoms: _250  and  _251
REMARK  104  A    between atoms: _251  and  _252
REMARK  105  A    between atoms: _255  and  _257
REMARK  106  A    between atoms: _257  and  _258
REMARK  107  A    between atoms: _257  and  _260
REMARK  108  A    between atoms: _260  and  _261
REMARK  109  A    between atoms: _264  and  _266
REMARK  110  A    between atoms: _266  and  _267
REMARK  111  A    between atoms: _270  and  _272
REMARK  112  A    between atoms: _272  and  _273
REMARK  113  A    between atoms: _272  and  _275
REMARK  114  A    between atoms: _278  and  _280
REMARK  115  A    between atoms: _280  and  _281
REMARK  116  A    between atoms: _280  and  _283
REMARK  117  A    between atoms: _283  and  _284
REMARK  118  A    between atoms: _289  and  _291
REMARK  119  A    between atoms: _291  and  _292
REMARK  120  A    between atoms: _291  and  _294
REMARK  121  A    between atoms: _294  and  _295
REMARK  122  A    between atoms: _295  and  _296
REMARK  123  A    between atoms: _298  and  _300
REMARK  124  A    between atoms: _300  and  _301
REMARK  125  A    between atoms: _303  and  _305
REMARK  126  A    between atoms: _305  and  _306
REMARK  127  A    between atoms: _305  and  _308
REMARK  128  A    between atoms: _308  and  _309
REMARK  129  A    between atoms: _311  and  _313
REMARK  130  A    between atoms: _313  and  _314
REMARK  131  A    between atoms: _317  and  _319
REMARK  132  A    between atoms: _319  and  _320
REMARK  133  A    between atoms: _323  and  _325
REMARK  134  A    between atoms: _325  and  _326
REMARK  135  A    between atoms: _325  and  _328
REMARK  136  A    between atoms: _328  and  _329
REMARK  137  A    between atoms: _332  and  _334
REMARK  138  A    between atoms: _334  and  _335
REMARK  139  A    between atoms: _334  and  _337
REMARK  140  A    between atoms: _337  and  _338
REMARK  141  A    between atoms: _341  and  _343
REMARK  142  A    between atoms: _343  and  _344
REMARK  143  A    between atoms: _343  and  _346
REMARK  144  A    between atoms: _346  and  _347
REMARK  145  A    between atoms: _350  and  _352
REMARK  146  A    between atoms: _352  and  _353
REMARK  147  A    between atoms: _352  and  _355
REMARK  148  A    between atoms: _355  and  _356
REMARK  149  A    between atoms: _362  and  _364
REMARK  150  A    between atoms: _364  and  _365
REMARK  151  A    between atoms: _368  and  _369
REMARK  152  A    between atoms: _374  and  _376
REMARK  153  A    between atoms: _376  and  _377
REMARK  154  A    between atoms: _376  and  _379
REMARK  155  A    between atoms: _379  and  _380
REMARK  156  A    between atoms: _385  and  _386
REMARK  157  A    between atoms: _388  and  _390
REMARK  158  A    between atoms: _390  and  _391
REMARK  159  A    between atoms: _390  and  _393
REMARK  160  A    between atoms: _393  and  _394
REMARK  161  A    between atoms: _394  and  _395
REMARK  162  A    between atoms: _398  and  _400
REMARK  163  A    between atoms: _400  and  _401
REMARK  164  A    between atoms: _400  and  _403
REMARK  165  A    between atoms: _406  and  _408
REMARK  166  A    between atoms: _408  and  _409
REMARK  167  A    between atoms: _408  and  _411
REMARK  168  A    between atoms: _411  and  _412
REMARK  169  A    between atoms: _415  and  _417
REMARK  170  A    between atoms: _417  and  _418
REMARK  171  A    between atoms: _417  and  _420
REMARK  172  A    between atoms: _420  and  _421
REMARK  173  A    between atoms: _421  and  _422
REMARK  174  A    between atoms: _422  and  _423
REMARK  175  A    between atoms: _432  and  _434
REMARK  176  A    between atoms: _434  and  _435
REMARK  177  A    between atoms: _434  and  _437
REMARK  178  A    between atoms: _437  and  _438
REMARK  179  A    between atoms: _443  and  _445
REMARK  180  A    between atoms: _445  and  _446
REMARK  181  A    between atoms: _445  and  _448
REMARK  182  A    between atoms: _448  and  _449
REMARK  183  A    between atoms: _451  and  _453
REMARK  184  A    between atoms: _453  and  _454
REMARK  185  A    between atoms: _453  and  _456
REMARK  186  A    between atoms: _456  and  _457
REMARK  187  A    between atoms: _460  and  _462
REMARK  188  A    between atoms: _462  and  _463
REMARK  189  A    between atoms: _465  and  _467
REMARK  190  A    between atoms: _467  and  _468
REMARK  191  A    between atoms: _467  and  _470
REMARK  192  A    between atoms: _473  and  _475
REMARK  193  A    between atoms: _475  and  _476
REMARK  194  A    between atoms: _475  and  _478
REMARK  195  A    between atoms: _478  and  _479
REMARK  196  A    between atoms: _482  and  _484
REMARK  197  A    between atoms: _484  and  _485
REMARK  198  A    between atoms: _484  and  _487
REMARK  199  A    between atoms: _487  and  _488
REMARK  200  A    between atoms: _492  and  _493
REMARK  201  A    between atoms: _498  and  _500
REMARK  202  A    between atoms: _500  and  _501
REMARK  203  A    between atoms: _503  and  _505
REMARK  204  A    between atoms: _505  and  _506
REMARK  205  A    between atoms: _505  and  _508
REMARK  206  A    between atoms: _511  and  _513
REMARK  207  A    between atoms: _513  and  _514
REMARK  208  A    between atoms: _513  and  _516
REMARK  209  A    between atoms: _516  and  _517
REMARK  210  A    between atoms: _517  and  _518
REMARK  211  A    between atoms: _518  and  _519
REMARK  212  A    between atoms: _529  and  _530
REMARK  213  A    between atoms: _535  and  _537
REMARK  214  A    between atoms: _537  and  _538
REMARK  215  A    between atoms: _537  and  _540
REMARK  216  A    between atoms: _540  and  _541
REMARK  217  A    between atoms: _546  and  _548
REMARK  218  A    between atoms: _548  and  _549
REMARK  219  A    between atoms: _548  and  _551
REMARK  220  A    between atoms: _551  and  _552
REMARK  221  A    between atoms: _554  and  _556
REMARK  222  A    between atoms: _556  and  _557
REMARK  223  A    between atoms: _556  and  _559
REMARK  224  A    between atoms: _559  and  _560
REMARK  225  A    between atoms: _562  and  _564
REMARK  226  A    between atoms: _564  and  _565
REMARK  227  A    between atoms: _564  and  _567
REMARK  228  A    between atoms: _567  and  _568
REMARK  229  A    between atoms: _571  and  _573
REMARK  230  A    between atoms: _573  and  _574
REMARK  231  A    between atoms: _573  and  _576
REMARK  232  A    between atoms: _576  and  _577
REMARK  233  A    between atoms: _583  and  _585
REMARK  234  A    between atoms: _585  and  _586
REMARK  235  A    between atoms: _585  and  _588
REMARK  236  A    between atoms: _588  and  _589
REMARK  237  A    between atoms: _594  and  _596
REMARK  238  A    between atoms: _596  and  _597
REMARK  239  A    between atoms: _599  and  _601
REMARK  240  A    between atoms: _601  and  _602
REMARK  241  A    between atoms: _601  and  _604
REMARK  242  A    between atoms: _604  and  _605
REMARK  243  A    between atoms: _605  and  _606
REMARK  244  A    between atoms: _606  and  _607
REMARK  245  A    between atoms: _616  and  _618
REMARK  246  A    between atoms: _618  and  _619
REMARK  247  A    between atoms: _618  and  _621
REMARK  248  A    between atoms: _621  and  _622
REMARK  249  A    between atoms: _625  and  _627
REMARK  250  A    between atoms: _627  and  _628
REMARK  251  A    between atoms: _627  and  _630
REMARK  252  A    between atoms: _630  and  _631
REMARK                            x       y       z     vdW  Elec       q    Type
REMARK                         _______ _______ _______ _____ _____    ______ ____
ROOT
ATOM      1  N   PRO A   1      12.464 -55.750  -1.402  0.00  0.00    -0.212 NA
ATOM      2  CD  PRO A   1      11.771 -54.742  -0.592  0.00  0.00    +0.089 C 
ATOM      3  CG  PRO A   1      12.284 -54.948   0.755  0.00  0.00    +0.021 C 
ATOM      4  CB  PRO A   1      13.576 -55.688   0.663  0.00  0.00    +0.027 C 
ATOM      5  CA  PRO A   1      13.526 -56.431  -0.658  0.00  0.00    +0.137 C 
ENDROOT
BRANCH   5   6
ATOM      6  C   PRO A   1      13.114 -57.903  -0.474  0.00  0.00    +0.224 C 
ATOM      7  O   PRO A   1      11.922 -58.188  -0.357  0.00  0.00    -0.287 OA
ENDBRANCH   5   6
TORSDOF 1
REMARK  Name = ../refined-set-2016/2wr8/2wr8_pocket.pdb
REMARK  252 active torsions:
REMARK  status: ('A' for Active; 'I' for Inactive)
REMARK    1  A    between atoms: _1  and  _3
REMARK    2  A    between atoms: _3  and  _4
REMARK    3  A    between atoms: _3  and  _6
REMARK    4  A    between atoms: _6  and  _7
REMARK    5  A    between atoms: _13  and  _15
REMARK    6  A    between atoms: _15  and  _16
REMARK    7  A    between atoms: _15  and  _18
REMARK    8  A    between atoms: _18  and  _19
REMARK    9  A    between atoms: _24  and  _25
REMARK   10  A    between atoms: _27  and  _29
REMARK   11  A    between atoms: _29  and  _30
REMARK   12  A    between atoms: _29  and  _32
REMARK   13  A    between atoms: _32  and  _33
REMARK   14  A    between atoms: _36  and  _38
REMARK   15  A    between atoms: _38  and  _39
REMARK   16  A    between atoms: _38  and  _41
REMARK   17  A    between atoms: _41  and  _42
REMARK   18  A    between atoms: _45  and  _47
REMARK   19  A    between atoms: _47  and  _48
REMARK   20  A    between atoms: _47  and  _50
REMARK   21  A    between atoms: _50  and  _51
REMARK   22  A    between atoms: _57  and  _59
REMARK   23  A    between atoms: _59  and  _60
REMARK   24  A    between atoms: _62  and  _64
REMARK   25  A    between atoms: _64  and  _65
REMARK   26  A    between atoms: _64  and  _67
REMARK   27  A    between atoms: _67  and  _68
REMARK   28  A    between atoms: _73  and  _75
REMARK   29  A    between atoms: _75  and  _76
REMARK   30  A    between atoms: _75  and  _78
REMARK   31  A    between atoms: _81  and  _83
REMARK   32  A    between atoms: _83  and  _84
REMARK   33  A    between atoms: _83  and  _86
REMARK   34  A    between atoms: _86  and  _87
REMARK   35  A    between atoms: _90  and  _92
REMARK   36  A    between atoms: _92  and  _93
REMARK   37  A    between atoms: _92  and  _95
REMARK   38  A    between atoms: _95  and  _96
REMARK   39  A    between atoms: _96  and  _97
REMARK   40  A    between atoms: _100  and  _102
REMARK   41  A    between atoms: _102  and  _103
REMARK   42  A    between atoms: _102  and  _105
REMARK   43  A    between atoms: _105  and  _106
REMARK   44  A    between atoms: _109  and  _111
REMARK   45  A    between atoms: _111  and  _112
REMARK   46  A    between atoms: _111  and  _114
REMARK   47  A    between atoms: _114  and  _115
REMARK   48  A    between atoms: _120  and  _121
REMARK   49  A    between atoms: _123  and  _125
REMARK   50  A    between atoms: _125  and  _126
REMARK   51  A    between atoms: _128  and  _130
REMARK   52  A    between atoms: _130  and  _131
REMARK   53  A    between atoms: _130  and  _133
REMARK   54  A    between atoms: _133  and  _134
REMARK   55  A    between atoms: _137  and  _139
REMARK   56  A    between atoms: _139  and  _140
REMARK   57  A    between atoms: _139  and  _142
REMARK   58  A    between atoms: _145  and  _147
REMARK   59  A    between atoms: _147  and  _148
REMARK   60  A    between atoms: _147  and  _150
REMARK   61  A    between atoms: _150  and  _151
REMARK   62  A    between atoms: _151  and  _152
REMARK   63  A    between atoms: _152  and  _153
REMARK   64  A    between atoms: _153  and  _154
REMARK   65  A    between atoms: _158  and  _160
REMARK   66  A    between atoms: _160  and  _161
REMARK   67  A    between atoms: _163  and  _165
REMARK   68  A    between atoms: _165  and  _166
REMARK   69  A    between atoms: _165  and  _168
REMARK   70  A    between atoms: _168  and  _169
REMARK   71  A    between atoms: _169  and  _170
REMARK   72  A    between atoms: _173  and  _175
REMARK   73  A    between atoms: _175  and  _176
REMARK   74  A    between atoms: _175  and  _178
REMARK   75  A    between atoms: _178  and  _179
REMARK   76  A    between atoms: _182  and  _184
REMARK   77  A    between atoms: _184  and  _185
REMARK   78  A    between atoms: _184  and  _187
REMARK   79  A    between atoms: _187  and  _188
REMARK   80  A    between atoms: _192  and  _193
REMARK   81  A    between atoms: _198  and  _200
REMARK   82  A    between atoms: _200  and  _201
REMARK   83  A    between atoms: _203  and  _205
REMARK   84  A    between atoms: _205  and  _206
REMARK   85  A    between atoms: _205  and  _208
REMARK   86  A    between atoms: _208  and  _209
REMARK   87  A    between atoms: _211  and  _213
REMARK   88  A    between atoms: _213  and  _214
REMARK   89  A    between atoms: _213  and  _216
REMARK   90  A    between atoms: _216  and  _217
REMARK   91  A    between atoms: _222  and  _224
REMARK   92  A    between atoms: _224  and  _225
REMARK   93  A    between atoms: _224  and  _227
REMARK   94  A    between atoms: _227  and  _228
REMARK   95  A    between atoms: _231  and  _233
REMARK   96  A    between atoms: _233  and  _234
REMARK   97  A    between atoms: _233  and  _236
REMARK   98  A    between atoms: _236  and  _237
REMARK   99  A    between atoms: _242  and  _243
REMARK  100  A    between atoms: _245  and  _247
REMARK  101  A    between atoms: _247  and  _248
REMARK  102  A    between atoms: _247  and  _250
REMARK  103  A    between atoms: _250  and  _251
REMARK  104  A    between atoms: _251  and  _252
REMARK  105  A    between atoms: _255  and  _257
REMARK  106  A    between atoms: _257  and  _258
REMARK  107  A    between atoms: _257  and  _260
REMARK  108  A    between atoms: _260  and  _261
REMARK  109  A    between atoms: _264  and  _266
REMARK  110  A    between atoms: _266  and  _267
REMARK  111  A    between atoms: _270  and  _272
REMARK  112  A    between atoms: _272  and  _273
REMARK  113  A    between atoms: _272  and  _275
REMARK  114  A    between atoms: _278  and  _280
REMARK  115  A    between atoms: _280  and  _281
REMARK  116  A    between atoms: _280  and  _283
REMARK  117  A    between atoms: _283  and  _284
REMARK  118  A    between atoms: _289  and  _291
REMARK  119  A    between atoms: _291  and  _292
REMARK  120  A    between atoms: _291  and  _294
REMARK  121  A    between atoms: _294  and  _295
REMARK  122  A    between atoms: _295  and  _296
REMARK  123  A    between atoms: _298  and  _300
REMARK  124  A    between atoms: _300  and  _301
REMARK  125  A    between atoms: _303  and  _305
REMARK  126  A    between atoms: _305  and  _306
REMARK  127  A    between atoms: _305  and  _308
REMARK  128  A    between atoms: _308  and  _309
REMARK  129  A    between atoms: _311  and  _313
REMARK  130  A    between atoms: _313  and  _314
REMARK  131  A    between atoms: _317  and  _319
REMARK  132  A    between atoms: _319  and  _320
REMARK  133  A    between atoms: _323  and  _325
REMARK  134  A    between atoms: _325  and  _326
REMARK  135  A    between atoms: _325  and  _328
REMARK  136  A    between atoms: _328  and  _329
REMARK  137  A    between atoms: _332  and  _334
REMARK  138  A    between atoms: _334  and  _335
REMARK  139  A    between atoms: _334  and  _337
REMARK  140  A    between atoms: _337  and  _338
REMARK  141  A    between atoms: _341  and  _343
REMARK  142  A    between atoms: _343  and  _344
REMARK  143  A    between atoms: _343  and  _346
REMARK  144  A    between atoms: _346  and  _347
REMARK  145  A    between atoms: _350  and  _352
REMARK  146  A    between atoms: _352  and  _353
REMARK  147  A    between atoms: _352  and  _355
REMARK  148  A    between atoms: _355  and  _356
REMARK  149  A    between atoms: _362  and  _364
REMARK  150  A    between atoms: _364  and  _365
REMARK  151  A    between atoms: _368  and  _369
REMARK  152  A    between atoms: _374  and  _376
REMARK  153  A    between atoms: _376  and  _377
REMARK  154  A    between atoms: _376  and  _379
REMARK  155  A    between atoms: _379  and  _380
REMARK  156  A    between atoms: _385  and  _386
REMARK  157  A    between atoms: _388  and  _390
REMARK  158  A    between atoms: _390  and  _391
REMARK  159  A    between atoms: _390  and  _393
REMARK  160  A    between atoms: _393  and  _394
REMARK  161  A    between atoms: _394  and  _395
REMARK  162  A    between atoms: _398  and  _400
REMARK  163  A    between atoms: _400  and  _401
REMARK  164  A    between atoms: _400  and  _403
REMARK  165  A    between atoms: _406  and  _408
REMARK  166  A    between atoms: _408  and  _409
REMARK  167  A    between atoms: _408  and  _411
REMARK  168  A    between atoms: _411  and  _412
REMARK  169  A    between atoms: _415  and  _417
REMARK  170  A    between atoms: _417  and  _418
REMARK  171  A    between atoms: _417  and  _420
REMARK  172  A    between atoms: _420  and  _421
REMARK  173  A    between atoms: _421  and  _422
REMARK  174  A    between atoms: _422  and  _423
REMARK  175  A    between atoms: _432  and  _434
REMARK  176  A    between atoms: _434  and  _435
REMARK  177  A    between atoms: _434  and  _437
REMARK  178  A    between atoms: _437  and  _438
REMARK  179  A    between atoms: _443  and  _445
REMARK  180  A    between atoms: _445  and  _446
REMARK  181  A    between atoms: _445  and  _448
REMARK  182  A    between atoms: _448  and  _449
REMARK  183  A    between atoms: _451  and  _453
REMARK  184  A    between atoms: _453  and  _454
REMARK  185  A    between atoms: _453  and  _456
REMARK  186  A    between atoms: _456  and  _457
REMARK  187  A    between atoms: _460  and  _462
REMARK  188  A    between atoms: _462  and  _463
REMARK  189  A    between atoms: _465  and  _467
REMARK  190  A    between atoms: _467  and  _468
REMARK  191  A    between atoms: _467  and  _470
REMARK  192  A    between atoms: _473  and  _475
REMARK  193  A    between atoms: _475  and  _476
REMARK  194  A    between atoms: _475  and  _478
REMARK  195  A    between atoms: _478  and  _479
REMARK  196  A    between atoms: _482  and  _484
REMARK  197  A    between atoms: _484  and  _485
REMARK  198  A    between atoms: _484  and  _487
REMARK  199  A    between atoms: _487  and  _488
REMARK  200  A    between atoms: _492  and  _493
REMARK  201  A    between atoms: _498  and  _500
REMARK  202  A    between atoms: _500  and  _501
REMARK  203  A    between atoms: _503  and  _505
REMARK  204  A    between atoms: _505  and  _506
REMARK  205  A    between atoms: _505  and  _508
REMARK  206  A    between atoms: _511  and  _513
REMARK  207  A    between atoms: _513  and  _514
REMARK  208  A    between atoms: _513  and  _516
REMARK  209  A    between atoms: _516  and  _517
REMARK  210  A    between atoms: _517  and  _518
REMARK  211  A    between atoms: _518  and  _519
REMARK  212  A    between atoms: _529  and  _530
REMARK  213  A    between atoms: _535  and  _537
REMARK  214  A    between atoms: _537  and  _538
REMARK  215  A    between atoms: _537  and  _540
REMARK  216  A    between atoms: _540  and  _541
REMARK  217  A    between atoms: _546  and  _548
REMARK  218  A    between atoms: _548  and  _549
REMARK  219  A    between atoms: _548  and  _551
REMARK  220  A    between atoms: _551  and  _552
REMARK  221  A    between atoms: _554  and  _556
REMARK  222  A    between atoms: _556  and  _557
REMARK  223  A    between atoms: _556  and  _559
REMARK  224  A    between atoms: _559  and  _560
REMARK  225  A    between atoms: _562  and  _564
REMARK  226  A    between atoms: _564  and  _565
REMARK  227  A    between atoms: _564  and  _567
REMARK  228  A    between atoms: _567  and  _568
REMARK  229  A    between atoms: _571  and  _573
REMARK  230  A    between atoms: _573  and  _574
REMARK  231  A    between atoms: _573  and  _576
REMARK  232  A    between atoms: _576  and  _577
REMARK  233  A    between atoms: _583  and  _585
REMARK  234  A    between atoms: _585  and  _586
REMARK  235  A    between atoms: _585  and  _588
REMARK  236  A    between atoms: _588  and  _589
REMARK  237  A    between atoms: _594  and  _596
REMARK  238  A    between atoms: _596  and  _597
REMARK  239  A    between atoms: _599  and  _601
REMARK  240  A    between atoms: _601  and  _602
REMARK  241  A    between atoms: _601  and  _604
REMARK  242  A    between atoms: _604  and  _605
REMARK  243  A    between atoms: _605  and  _606
REMARK  244  A    between atoms: _606  and  _607
REMARK  245  A    between atoms: _616  and  _618
REMARK  246  A    between atoms: _618  and  _619
REMARK  247  A    between atoms: _618  and  _621
REMARK  248  A    between atoms: _621  and  _622
REMARK  249  A    between atoms: _625  and  _627
REMARK  250  A    between atoms: _627  and  _628
REMARK  251  A    between atoms: _627  and  _630
REMARK  252  A    between atoms: _630  and  _631
REMARK                            x       y       z     vdW  Elec       q    Type
REMARK                         _______ _______ _______ _____ _____    ______ ____
ROOT
ATOM      1  CB  ASN A   1      12.762 -58.798   3.920  0.00  0.00    +0.110 C 
ENDROOT
BRANCH   1   2
ATOM      2  CG  ASN A   1      11.762 -57.692   3.521  0.00  0.00    +0.221 C 
ATOM      3  ND2 ASN A   1      12.082 -56.444   3.915  0.00  0.00    -0.329 N 
ATOM      4 HD21 ASN A   1      12.958 -56.276   4.450  0.00  0.00    +0.145 HD
ATOM      5 HD22 ASN A   1      11.453 -55.649   3.685  0.00  0.00    +0.145 HD
ATOM      6  OD1 ASN A   1      10.747 -57.945   2.892  0.00  0.00    -0.275 OA
ENDBRANCH   1   2
BRANCH   1   7
ATOM      7  CA  ASN A   1      12.442 -60.141   3.284  0.00  0.00    +0.142 C 
BRANCH   7   8
ATOM      8  N   ASN A   1      12.629 -60.058   1.848  0.00  0.00    -0.239 NA
ATOM      9  H   ASN A   1      11.858 -59.678   1.262  0.00  0.00    +0.142 HD
ENDBRANCH   7   8
BRANCH   7  10
ATOM     10  C   ASN A   1      11.028 -60.600   3.709  0.00  0.00    +0.225 C 
ATOM     11  O   ASN A   1      10.679 -60.472   4.884  0.00  0.00    -0.287 OA
ENDBRANCH   7  10
ENDBRANCH   1   7
TORSDOF 4
REMARK  Name = ../refined-set-2016/2wr8/2wr8_pocket.pdb
REMARK  252 active torsions:
REMARK  status: ('A' for Active; 'I' for Inactive)
REMARK    1  A    between atoms: _1  and  _3
REMARK    2  A    between atoms: _3  and  _4
REMARK    3  A    between atoms: _3  and  _6
REMARK    4  A    between atoms: _6  and  _7
REMARK    5  A    between atoms: _13  and  _15
REMARK    6  A    between atoms: _15  and  _16
REMARK    7  A    between atoms: _15  and  _18
REMARK    8  A    between atoms: _18  and  _19
REMARK    9  A    between atoms: _24  and  _25
REMARK   10  A    between atoms: _27  and  _29
REMARK   11  A    between atoms: _29  and  _30
REMARK   12  A    between atoms: _29  and  _32
REMARK   13  A    between atoms: _32  and  _33
REMARK   14  A    between atoms: _36  and  _38
REMARK   15  A    between atoms: _38  and  _39
REMARK   16  A    between atoms: _38  and  _41
REMARK   17  A    between atoms: _41  and  _42
REMARK   18  A    between atoms: _45  and  _47
REMARK   19  A    between atoms: _47  and  _48
REMARK   20  A    between atoms: _47  and  _50
REMARK   21  A    between atoms: _50  and  _51
REMARK   22  A    between atoms: _57  and  _59
REMARK   23  A    between atoms: _59  and  _60
REMARK   24  A    between atoms: _62  and  _64
REMARK   25  A    between atoms: _64  and  _65
REMARK   26  A    between atoms: _64  and  _67
REMARK   27  A    between atoms: _67  and  _68
REMARK   28  A    between atoms: _73  and  _75
REMARK   29  A    between atoms: _75  and  _76
REMARK   30  A    between atoms: _75  and  _78
REMARK   31  A    between atoms: _81  and  _83
REMARK   32  A    between atoms: _83  and  _84
REMARK   33  A    between atoms: _83  and  _86
REMARK   34  A    between atoms: _86  and  _87
REMARK   35  A    between atoms: _90  and  _92
REMARK   36  A    between atoms: _92  and  _93
REMARK   37  A    between atoms: _92  and  _95
REMARK   38  A    between atoms: _95  and  _96
REMARK   39  A    between atoms: _96  and  _97
REMARK   40  A    between atoms: _100  and  _102
REMARK   41  A    between atoms: _102  and  _103
REMARK   42  A    between atoms: _102  and  _105
REMARK   43  A    between atoms: _105  and  _106
REMARK   44  A    between atoms: _109  and  _111
REMARK   45  A    between atoms: _111  and  _112
REMARK   46  A    between atoms: _111  and  _114
REMARK   47  A    between atoms: _114  and  _115
REMARK   48  A    between atoms: _120  and  _121
REMARK   49  A    between atoms: _123  and  _125
REMARK   50  A    between atoms: _125  and  _126
REMARK   51  A    between atoms: _128  and  _130
REMARK   52  A    between atoms: _130  and  _131
REMARK   53  A    between atoms: _130  and  _133
REMARK   54  A    between atoms: _133  and  _134
REMARK   55  A    between atoms: _137  and  _139
REMARK   56  A    between atoms: _139  and  _140
REMARK   57  A    between atoms: _139  and  _142
REMARK   58  A    between atoms: _145  and  _147
REMARK   59  A    between atoms: _147  and  _148
REMARK   60  A    between atoms: _147  and  _150
REMARK   61  A    between atoms: _150  and  _151
REMARK   62  A    between atoms: _151  and  _152
REMARK   63  A    between atoms: _152  and  _153
REMARK   64  A    between atoms: _153  and  _154
REMARK   65  A    between atoms: _158  and  _160
REMARK   66  A    between atoms: _160  and  _161
REMARK   67  A    between atoms: _163  and  _165
REMARK   68  A    between atoms: _165  and  _166
REMARK   69  A    between atoms: _165  and  _168
REMARK   70  A    between atoms: _168  and  _169
REMARK   71  A    between atoms: _169  and  _170
REMARK   72  A    between atoms: _173  and  _175
REMARK   73  A    between atoms: _175  and  _176
REMARK   74  A    between atoms: _175  and  _178
REMARK   75  A    between atoms: _178  and  _179
REMARK   76  A    between atoms: _182  and  _184
REMARK   77  A    between atoms: _184  and  _185
REMARK   78  A    between atoms: _184  and  _187
REMARK   79  A    between atoms: _187  and  _188
REMARK   80  A    between atoms: _192  and  _193
REMARK   81  A    between atoms: _198  and  _200
REMARK   82  A    between atoms: _200  and  _201
REMARK   83  A    between atoms: _203  and  _205
REMARK   84  A    between atoms: _205  and  _206
REMARK   85  A    between atoms: _205  and  _208
REMARK   86  A    between atoms: _208  and  _209
REMARK   87  A    between atoms: _211  and  _213
REMARK   88  A    between atoms: _213  and  _214
REMARK   89  A    between atoms: _213  and  _216
REMARK   90  A    between atoms: _216  and  _217
REMARK   91  A    between atoms: _222  and  _224
REMARK   92  A    between atoms: _224  and  _225
REMARK   93  A    between atoms: _224  and  _227
REMARK   94  A    between atoms: _227  and  _228
REMARK   95  A    between atoms: _231  and  _233
REMARK   96  A    between atoms: _233  and  _234
REMARK   97  A    between atoms: _233  and  _236
REMARK   98  A    between atoms: _236  and  _237
REMARK   99  A    between atoms: _242  and  _243
REMARK  100  A    between atoms: _245  and  _247
REMARK  101  A    between atoms: _247  and  _248
REMARK  102  A    between atoms: _247  and  _250
REMARK  103  A    between atoms: _250  and  _251
REMARK  104  A    between atoms: _251  and  _252
REMARK  105  A    between atoms: _255  and  _257
REMARK  106  A    between atoms: _257  and  _258
REMARK  107  A    between atoms: _257  and  _260
REMARK  108  A    between atoms: _260  and  _261
REMARK  109  A    between atoms: _264  and  _266
REMARK  110  A    between atoms: _266  and  _267
REMARK  111  A    between atoms: _270  and  _272
REMARK  112  A    between atoms: _272  and  _273
REMARK  113  A    between atoms: _272  and  _275
REMARK  114  A    between atoms: _278  and  _280
REMARK  115  A    between atoms: _280  and  _281
REMARK  116  A    between atoms: _280  and  _283
REMARK  117  A    between atoms: _283  and  _284
REMARK  118  A    between atoms: _289  and  _291
REMARK  119  A    between atoms: _291  and  _292
REMARK  120  A    between atoms: _291  and  _294
REMARK  121  A    between atoms: _294  and  _295
REMARK  122  A    between atoms: _295  and  _296
REMARK  123  A    between atoms: _298  and  _300
REMARK  124  A    between atoms: _300  and  _301
REMARK  125  A    between atoms: _303  and  _305
REMARK  126  A    between atoms: _305  and  _306
REMARK  127  A    between atoms: _305  and  _308
REMARK  128  A    between atoms: _308  and  _309
REMARK  129  A    between atoms: _311  and  _313
REMARK  130  A    between atoms: _313  and  _314
REMARK  131  A    between atoms: _317  and  _319
REMARK  132  A    between atoms: _319  and  _320
REMARK  133  A    between atoms: _323  and  _325
REMARK  134  A    between atoms: _325  and  _326
REMARK  135  A    between atoms: _325  and  _328
REMARK  136  A    between atoms: _328  and  _329
REMARK  137  A    between atoms: _332  and  _334
REMARK  138  A    between atoms: _334  and  _335
REMARK  139  A    between atoms: _334  and  _337
REMARK  140  A    between atoms: _337  and  _338
REMARK  141  A    between atoms: _341  and  _343
REMARK  142  A    between atoms: _343  and  _344
REMARK  143  A    between atoms: _343  and  _346
REMARK  144  A    between atoms: _346  and  _347
REMARK  145  A    between atoms: _350  and  _352
REMARK  146  A    between atoms: _352  and  _353
REMARK  147  A    between atoms: _352  and  _355
REMARK  148  A    between atoms: _355  and  _356
REMARK  149  A    between atoms: _362  and  _364
REMARK  150  A    between atoms: _364  and  _365
REMARK  151  A    between atoms: _368  and  _369
REMARK  152  A    between atoms: _374  and  _376
REMARK  153  A    between atoms: _376  and  _377
REMARK  154  A    between atoms: _376  and  _379
REMARK  155  A    between atoms: _379  and  _380
REMARK  156  A    between atoms: _385  and  _386
REMARK  157  A    between atoms: _388  and  _390
REMARK  158  A    between atoms: _390  and  _391
REMARK  159  A    between atoms: _390  and  _393
REMARK  160  A    between atoms: _393  and  _394
REMARK  161  A    between atoms: _394  and  _395
REMARK  162  A    between atoms: _398  and  _400
REMARK  163  A    between atoms: _400  and  _401
REMARK  164  A    between atoms: _400  and  _403
REMARK  165  A    between atoms: _406  and  _408
REMARK  166  A    between atoms: _408  and  _409
REMARK  167  A    between atoms: _408  and  _411
REMARK  168  A    between atoms: _411  and  _412
REMARK  169  A    between atoms: _415  and  _417
REMARK  170  A    between atoms: _417  and  _418
REMARK  171  A    between atoms: _417  and  _420
REMARK  172  A    between atoms: _420  and  _421
REMARK  173  A    between atoms: _421  and  _422
REMARK  174  A    between atoms: _422  and  _423
REMARK  175  A    between atoms: _432  and  _434
REMARK  176  A    between atoms: _434  and  _435
REMARK  177  A    between atoms: _434  and  _437
REMARK  178  A    between atoms: _437  and  _438
REMARK  179  A    between atoms: _443  and  _445
REMARK  180  A    between atoms: _445  and  _446
REMARK  181  A    between atoms: _445  and  _448
REMARK  182  A    between atoms: _448  and  _449
REMARK  183  A    between atoms: _451  and  _453
REMARK  184  A    between atoms: _453  and  _454
REMARK  185  A    between atoms: _453  and  _456
REMARK  186  A    between atoms: _456  and  _457
REMARK  187  A    between atoms: _460  and  _462
REMARK  188  A    between atoms: _462  and  _463
REMARK  189  A    between atoms: _465  and  _467
REMARK  190  A    between atoms: _467  and  _468
REMARK  191  A    between atoms: _467  and  _470
REMARK  192  A    between atoms: _473  and  _475
REMARK  193  A    between atoms: _475  and  _476
REMARK  194  A    between atoms: _475  and  _478
REMARK  195  A    between atoms: _478  and  _479
REMARK  196  A    between atoms: _482  and  _484
REMARK  197  A    between atoms: _484  and  _485
REMARK  198  A    between atoms: _484  and  _487
REMARK  199  A    between atoms: _487  and  _488
REMARK  200  A    between atoms: _492  and  _493
REMARK  201  A    between atoms: _498  and  _500
REMARK  202  A    between atoms: _500  and  _501
REMARK  203  A    between atoms: _503  and  _505
REMARK  204  A    between atoms: _505  and  _506
REMARK  205  A    between atoms: _505  and  _508
REMARK  206  A    between atoms: _511  and  _513
REMARK  207  A    between atoms: _513  and  _514
REMARK  208  A    between atoms: _513  and  _516
REMARK  209  A    between atoms: _516  and  _517
REMARK  210  A    between atoms: _517  and  _518
REMARK  211  A    between atoms: _518  and  _519
REMARK  212  A    between atoms: _529  and  _530
REMARK  213  A    between atoms: _535  and  _537
REMARK  214  A    between atoms: _537  and  _538
REMARK  215  A    between atoms: _537  and  _540
REMARK  216  A    between atoms: _540  and  _541
REMARK  217  A    between atoms: _546  and  _548
REMARK  218  A    between atoms: _548  and  _549
REMARK  219  A    between atoms: _548  and  _551
REMARK  220  A    between atoms: _551  and  _552
REMARK  221  A    between atoms: _554  and  _556
REMARK  222  A    between atoms: _556  and  _557
REMARK  223  A    between atoms: _556  and  _559
REMARK  224  A    between atoms: _559  and  _560
REMARK  225  A    between atoms: _562  and  _564
REMARK  226  A    between atoms: _564  and  _565
REMARK  227  A    between atoms: _564  and  _567
REMARK  228  A    between atoms: _567  and  _568
REMARK  229  A    between atoms: _571  and  _573
REMARK  230  A    between atoms: _573  and  _574
REMARK  231  A    between atoms: _573  and  _576
REMARK  232  A    between atoms: _576  and  _577
REMARK  233  A    between atoms: _583  and  _585
REMARK  234  A    between atoms: _585  and  _586
REMARK  235  A    between atoms: _585  and  _588
REMARK  236  A    between atoms: _588  and  _589
REMARK  237  A    between atoms: _594  and  _596
REMARK  238  A    between atoms: _596  and  _597
REMARK  239  A    between atoms: _599  and  _601
REMARK  240  A    between atoms: _601  and  _602
REMARK  241  A    between atoms: _601  and  _604
REMARK  242  A    between atoms: _604  and  _605
REMARK  243  A    between atoms: _605  and  _606
REMARK  244  A    between atoms: _606  and  _607
REMARK  245  A    between atoms: _616  and  _618
REMARK  246  A    between atoms: _618  and  _619
REMARK  247  A    between atoms: _618  and  _621
REMARK  248  A    between atoms: _621  and  _622
REMARK  249  A    between atoms: _625  and  _627
REMARK  250  A    between atoms: _627  and  _628
REMARK  251  A    between atoms: _627  and  _630
REMARK  252  A    between atoms: _630  and  _631
REMARK                            x       y       z     vdW  Elec       q    Type
REMARK                         _______ _______ _______ _____ _____    ______ ____
ROOT
ATOM      1  CA  HIS A   5      17.637 -48.445  -1.612  0.00  0.00    +0.155 C 
ENDROOT
BRANCH   1   2
ATOM      2  C   HIS A   5      16.341 -48.188  -2.409  0.00  0.00    +0.241 C 
ATOM      3  N   GLY A   6      15.317 -47.622  -1.784  0.00  0.00    -0.295 N 
ATOM      4  H   GLY A   6      15.316 -47.526  -0.748  0.00  0.00    +0.150 HD
ATOM      5  O   HIS A   5      16.274 -48.458  -3.604  0.00  0.00    -0.273 OA
BRANCH   3   6
ATOM      6  CA  GLY A   6      14.178 -47.131  -2.588  0.00  0.00    +0.176 C 
BRANCH   6   7
ATOM      7  C   GLY A   6      14.606 -46.175  -3.684  0.00  0.00    +0.243 C 
ATOM      8  N   ARG A   7      15.446 -45.206  -3.338  0.00  0.00    -0.297 N 
ATOM      9  H   ARG A   7      15.763 -45.141  -2.350  0.00  0.00    +0.150 HD
ATOM     10  O   GLY A   6      14.186 -46.305  -4.855  0.00  0.00    -0.273 OA
BRANCH   8  11
ATOM     11  CA  ARG A   7      15.937 -44.228  -4.307  0.00  0.00    +0.149 C 
BRANCH  11  12
ATOM     12  C   ARG A   7      16.957 -44.834  -5.259  0.00  0.00    +0.241 C 
ATOM     13  N   ASP A   8      17.792 -45.742  -4.739  0.00  0.00    -0.298 N 
ATOM     14  H   ASP A   8      17.592 -46.162  -3.809  0.00  0.00    +0.150 HD
ATOM     15  O   ARG A   7      16.978 -44.506  -6.438  0.00  0.00    -0.273 OA
BRANCH  13  16
ATOM     16  CA  ASP A   8      19.003 -46.148  -5.493  0.00  0.00    +0.148 C 
BRANCH  16  17
ATOM     17  C   ASP A   8      18.938 -47.502  -6.191  0.00  0.00    +0.227 C 
ATOM     18  O   ASP A   8      19.807 -47.809  -7.061  0.00  0.00    -0.286 OA
ENDBRANCH  16  17
BRANCH  16  19
ATOM     19  CB  ASP A   8      20.218 -46.116  -4.552  0.00  0.00    +0.142 C 
BRANCH  19  20
ATOM     20  CG  ASP A   8      20.465 -44.741  -3.949  0.00  0.00    +0.367 C 
ATOM     21  OD2 ASP A   8      21.028 -44.665  -2.831  0.00  0.00    -0.246 OA
ATOM     22  OD1 ASP A   8      20.047 -43.745  -4.578  0.00  0.00    -0.246 OA
ENDBRANCH  19  20
ENDBRANCH  16  19
ENDBRANCH  13  16
ENDBRANCH  11  12
BRANCH  11  23
ATOM     23  CB  ARG A   7      16.573 -43.028  -3.579  0.00  0.00    +0.033 C 
BRANCH  23  24
ATOM     24  CG  ARG A   7      17.062 -41.925  -4.472  0.00  0.00    +0.045 C 
BRANCH  24  25
ATOM     25  CD  ARG A   7      17.871 -40.890  -3.674  0.00  0.00    +0.174 C 
BRANCH  25  26
ATOM     26  NE  ARG A   7      19.124 -41.493  -3.212  0.00  0.00    -0.265 N 
ATOM     27  CZ  ARG A   7      19.869 -41.053  -2.192  0.00  0.00    +0.342 C 
ATOM     28  NH2 ARG A   7      19.538 -39.944  -1.535  0.00  0.00    -0.292 N 
ATOM     29 HH21 ARG A   7      20.126 -39.613  -0.744  0.00  0.00    +0.255 HD
ATOM     30 HH22 ARG A   7      18.691 -39.408  -1.813  0.00  0.00    +0.255 HD
ATOM     31  NH1 ARG A   7      21.000 -41.702  -1.872  0.00  0.00    -0.292 N 
ATOM     32 HH11 ARG A   7      21.586 -41.367  -1.080  0.00  0.00    +0.255 HD
ATOM     33 HH12 ARG A   7      21.290 -42.540  -2.416  0.00  0.00    +0.255 HD
ATOM     34  HE  ARG A   7      19.463 -42.335  -3.720  0.00  0.00    +0.259 HD
ENDBRANCH  25  26
ENDBRANCH  24  25
ENDBRANCH  23  24
ENDBRANCH  11  23
ENDBRANCH   8  11
ENDBRANCH   6   7
ENDBRANCH   3   6
ENDBRANCH   1   2
BRANCH   1  36
ATOM     35  C   PHE A   4      18.038 -46.342  -0.459  0.00  0.00    +0.241 C 
ATOM     36  N   HIS A   5      17.753 -47.640  -0.386  0.00  0.00    -0.297 N 
ATOM     37  H   HIS A   5      17.612 -48.087   0.542  0.00  0.00    +0.150 HD
ATOM     38  O   PHE A   4      18.178 -45.757  -1.542  0.00  0.00    -0.273 OA
BRANCH  35  39
ATOM     39  CA  PHE A   4      18.110 -45.641   0.884  0.00  0.00    +0.153 C 
BRANCH  39  42
ATOM     40  C   THR A   3      19.113 -47.032   2.619  0.00  0.00    +0.243 C 
ATOM     41  O   THR A   3      18.037 -47.576   2.863  0.00  0.00    -0.273 OA
ATOM     42  N   PHE A   4      19.265 -46.151   1.615  0.00  0.00    -0.297 N 
ATOM     43  H   PHE A   4      20.219 -45.829   1.356  0.00  0.00    +0.150 HD
BRANCH  40  44
ATOM     44  CA  THR A   3      20.303 -47.409   3.487  0.00  0.00    +0.176 C 
BRANCH  44  47
ATOM     45  C   SER A   2      22.459 -48.307   2.811  0.00  0.00    +0.243 C 
ATOM     46  O   SER A   2      22.121 -49.447   3.101  0.00  0.00    -0.273 OA
ATOM     47  N   THR A   3      21.625 -47.261   2.886  0.00  0.00    -0.295 N 
ATOM     48  H   THR A   3      21.922 -46.337   2.513  0.00  0.00    +0.150 HD
BRANCH  45  49
ATOM     49  CA  SER A   2      23.859 -48.031   2.348  0.00  0.00    +0.178 C 
BRANCH  49  51
ATOM     50  C   SER A   1      23.546 -46.784   0.295  0.00  0.00    +0.241 C 
ATOM     51  N   SER A   2      23.968 -46.798   1.559  0.00  0.00    -0.295 N 
ATOM     52  H   SER A   2      24.373 -45.940   1.984  0.00  0.00    +0.150 HD
ATOM     53  O   SER A   1      23.064 -47.782  -0.238  0.00  0.00    -0.274 OA
BRANCH  50  54
ATOM     54  CA  SER A   1      23.662 -45.471  -0.479  0.00  0.00    +0.174 C 
BRANCH  54  55
ATOM     55  N   SER A   1      23.569 -45.654  -1.921  0.00  0.00    -0.236 NA
ATOM     56  H   SER A   1      22.765 -45.233  -2.429  0.00  0.00    +0.142 HD
ENDBRANCH  54  55
BRANCH  54  57
ATOM     57  CB  SER A   1      22.582 -44.491  -0.014  0.00  0.00    +0.163 C 
BRANCH  57  58
ATOM     58  OG  SER A   1      21.295 -45.049  -0.190  0.00  0.00    -0.380 OA
ATOM     59  H   SER A   1      21.153 -45.253  -1.148  0.00  0.00    +0.211 HD
ENDBRANCH  57  58
ENDBRANCH  54  57
ENDBRANCH  50  54
ENDBRANCH  49  51
BRANCH  49  60
ATOM     60  CB  SER A   2      24.793 -47.992   3.554  0.00  0.00    +0.166 C 
BRANCH  60  61
ATOM     61  OG  SER A   2      26.138 -48.160   3.134  0.00  0.00    -0.380 OA
ATOM     62  H   SER A   2      26.735 -48.133   3.923  0.00  0.00    +0.211 HD
ENDBRANCH  60  61
ENDBRANCH  49  60
ENDBRANCH  45  49
ENDBRANCH  44  47
BRANCH  44  63
ATOM     63  CB  THR A   3      20.234 -46.627   4.873  0.00  0.00    +0.137 C 
ATOM     64  CG2 THR A   3      20.994 -47.358   5.960  0.00  0.00    +0.034 C 
BRANCH  63  65
ATOM     65  OG1 THR A   3      20.789 -45.321   4.690  0.00  0.00    -0.382 OA
ATOM     66  HG1 THR A   3      20.268 -44.835   4.003  0.00  0.00    +0.210 HD
ENDBRANCH  63  65
ENDBRANCH  44  63
ENDBRANCH  40  44
ENDBRANCH  39  42
BRANCH  39  67
ATOM     67  CB  PHE A   4      18.175 -44.119   0.751  0.00  0.00    +0.055 C 
BRANCH  67  68
ATOM     68  CG  PHE A   4      16.873 -43.457   0.294  0.00  0.00    -0.020 A 
ATOM     69  CD2 PHE A   4      15.670 -44.153   0.200  0.00  0.00    -0.004 A 
ATOM     70  CE2 PHE A   4      14.508 -43.500  -0.203  0.00  0.00    -0.000 A 
ATOM     71  CZ  PHE A   4      14.563 -42.169  -0.553  0.00  0.00    -0.000 A 
ATOM     72  CE1 PHE A   4      15.737 -41.482  -0.476  0.00  0.00    -0.000 A 
ATOM     73  CD1 PHE A   4      16.889 -42.134  -0.066  0.00  0.00    -0.004 A 
ENDBRANCH  67  68
ENDBRANCH  39  67
ENDBRANCH  35  39
ENDBRANCH   1  36
BRANCH   1  74
ATOM     74  CB  HIS A   5      17.845 -49.912  -1.251  0.00  0.00    +0.076 C 
BRANCH  74  75
ATOM     75  CG  HIS A   5      19.272 -50.233  -0.885  0.00  0.00    +0.082 A 
ATOM     76  ND1 HIS A   5      19.725 -51.518  -0.684  0.00  0.00    -0.227 NA
ATOM     77  CE1 HIS A   5      21.029 -51.492  -0.438  0.00  0.00    +0.199 A 
ATOM     78  NE2 HIS A   5      21.447 -50.230  -0.488  0.00  0.00    -0.221 NA
ATOM     79  CD2 HIS A   5      20.367 -49.427  -0.776  0.00  0.00    +0.115 A 
ENDBRANCH  74  75
ENDBRANCH   1  74
TORSDOF 32
REMARK  Name = ../refined-set-2016/2wr8/2wr8_pocket.pdb
REMARK  252 active torsions:
REMARK  status: ('A' for Active; 'I' for Inactive)
REMARK    1  A    between atoms: _1  and  _3
REMARK    2  A    between atoms: _3  and  _4
REMARK    3  A    between atoms: _3  and  _6
REMARK    4  A    between atoms: _6  and  _7
REMARK    5  A    between atoms: _13  and  _15
REMARK    6  A    between atoms: _15  and  _16
REMARK    7  A    between atoms: _15  and  _18
REMARK    8  A    between atoms: _18  and  _19
REMARK    9  A    between atoms: _24  and  _25
REMARK   10  A    between atoms: _27  and  _29
REMARK   11  A    between atoms: _29  and  _30
REMARK   12  A    between atoms: _29  and  _32
REMARK   13  A    between atoms: _32  and  _33
REMARK   14  A    between atoms: _36  and  _38
REMARK   15  A    between atoms: _38  and  _39
REMARK   16  A    between atoms: _38  and  _41
REMARK   17  A    between atoms: _41  and  _42
REMARK   18  A    between atoms: _45  and  _47
REMARK   19  A    between atoms: _47  and  _48
REMARK   20  A    between atoms: _47  and  _50
REMARK   21  A    between atoms: _50  and  _51
REMARK   22  A    between atoms: _57  and  _59
REMARK   23  A    between atoms: _59  and  _60
REMARK   24  A    between atoms: _62  and  _64
REMARK   25  A    between atoms: _64  and  _65
REMARK   26  A    between atoms: _64  and  _67
REMARK   27  A    between atoms: _67  and  _68
REMARK   28  A    between atoms: _73  and  _75
REMARK   29  A    between atoms: _75  and  _76
REMARK   30  A    between atoms: _75  and  _78
REMARK   31  A    between atoms: _81  and  _83
REMARK   32  A    between atoms: _83  and  _84
REMARK   33  A    between atoms: _83  and  _86
REMARK   34  A    between atoms: _86  and  _87
REMARK   35  A    between atoms: _90  and  _92
REMARK   36  A    between atoms: _92  and  _93
REMARK   37  A    between atoms: _92  and  _95
REMARK   38  A    between atoms: _95  and  _96
REMARK   39  A    between atoms: _96  and  _97
REMARK   40  A    between atoms: _100  and  _102
REMARK   41  A    between atoms: _102  and  _103
REMARK   42  A    between atoms: _102  and  _105
REMARK   43  A    between atoms: _105  and  _106
REMARK   44  A    between atoms: _109  and  _111
REMARK   45  A    between atoms: _111  and  _112
REMARK   46  A    between atoms: _111  and  _114
REMARK   47  A    between atoms: _114  and  _115
REMARK   48  A    between atoms: _120  and  _121
REMARK   49  A    between atoms: _123  and  _125
REMARK   50  A    between atoms: _125  and  _126
REMARK   51  A    between atoms: _128  and  _130
REMARK   52  A    between atoms: _130  and  _131
REMARK   53  A    between atoms: _130  and  _133
REMARK   54  A    between atoms: _133  and  _134
REMARK   55  A    between atoms: _137  and  _139
REMARK   56  A    between atoms: _139  and  _140
REMARK   57  A    between atoms: _139  and  _142
REMARK   58  A    between atoms: _145  and  _147
REMARK   59  A    between atoms: _147  and  _148
REMARK   60  A    between atoms: _147  and  _150
REMARK   61  A    between atoms: _150  and  _151
REMARK   62  A    between atoms: _151  and  _152
REMARK   63  A    between atoms: _152  and  _153
REMARK   64  A    between atoms: _153  and  _154
REMARK   65  A    between atoms: _158  and  _160
REMARK   66  A    between atoms: _160  and  _161
REMARK   67  A    between atoms: _163  and  _165
REMARK   68  A    between atoms: _165  and  _166
REMARK   69  A    between atoms: _165  and  _168
REMARK   70  A    between atoms: _168  and  _169
REMARK   71  A    between atoms: _169  and  _170
REMARK   72  A    between atoms: _173  and  _175
REMARK   73  A    between atoms: _175  and  _176
REMARK   74  A    between atoms: _175  and  _178
REMARK   75  A    between atoms: _178  and  _179
REMARK   76  A    between atoms: _182  and  _184
REMARK   77  A    between atoms: _184  and  _185
REMARK   78  A    between atoms: _184  and  _187
REMARK   79  A    between atoms: _187  and  _188
REMARK   80  A    between atoms: _192  and  _193
REMARK   81  A    between atoms: _198  and  _200
REMARK   82  A    between atoms: _200  and  _201
REMARK   83  A    between atoms: _203  and  _205
REMARK   84  A    between atoms: _205  and  _206
REMARK   85  A    between atoms: _205  and  _208
REMARK   86  A    between atoms: _208  and  _209
REMARK   87  A    between atoms: _211  and  _213
REMARK   88  A    between atoms: _213  and  _214
REMARK   89  A    between atoms: _213  and  _216
REMARK   90  A    between atoms: _216  and  _217
REMARK   91  A    between atoms: _222  and  _224
REMARK   92  A    between atoms: _224  and  _225
REMARK   93  A    between atoms: _224  and  _227
REMARK   94  A    between atoms: _227  and  _228
REMARK   95  A    between atoms: _231  and  _233
REMARK   96  A    between atoms: _233  and  _234
REMARK   97  A    between atoms: _233  and  _236
REMARK   98  A    between atoms: _236  and  _237
REMARK   99  A    between atoms: _242  and  _243
REMARK  100  A    between atoms: _245  and  _247
REMARK  101  A    between atoms: _247  and  _248
REMARK  102  A    between atoms: _247  and  _250
REMARK  103  A    between atoms: _250  and  _251
REMARK  104  A    between atoms: _251  and  _252
REMARK  105  A    between atoms: _255  and  _257
REMARK  106  A    between atoms: _257  and  _258
REMARK  107  A    between atoms: _257  and  _260
REMARK  108  A    between atoms: _260  and  _261
REMARK  109  A    between atoms: _264  and  _266
REMARK  110  A    between atoms: _266  and  _267
REMARK  111  A    between atoms: _270  and  _272
REMARK  112  A    between atoms: _272  and  _273
REMARK  113  A    between atoms: _272  and  _275
REMARK  114  A    between atoms: _278  and  _280
REMARK  115  A    between atoms: _280  and  _281
REMARK  116  A    between atoms: _280  and  _283
REMARK  117  A    between atoms: _283  and  _284
REMARK  118  A    between atoms: _289  and  _291
REMARK  119  A    between atoms: _291  and  _292
REMARK  120  A    between atoms: _291  and  _294
REMARK  121  A    between atoms: _294  and  _295
REMARK  122  A    between atoms: _295  and  _296
REMARK  123  A    between atoms: _298  and  _300
REMARK  124  A    between atoms: _300  and  _301
REMARK  125  A    between atoms: _303  and  _305
REMARK  126  A    between atoms: _305  and  _306
REMARK  127  A    between atoms: _305  and  _308
REMARK  128  A    between atoms: _308  and  _309
REMARK  129  A    between atoms: _311  and  _313
REMARK  130  A    between atoms: _313  and  _314
REMARK  131  A    between atoms: _317  and  _319
REMARK  132  A    between atoms: _319  and  _320
REMARK  133  A    between atoms: _323  and  _325
REMARK  134  A    between atoms: _325  and  _326
REMARK  135  A    between atoms: _325  and  _328
REMARK  136  A    between atoms: _328  and  _329
REMARK  137  A    between atoms: _332  and  _334
REMARK  138  A    between atoms: _334  and  _335
REMARK  139  A    between atoms: _334  and  _337
REMARK  140  A    between atoms: _337  and  _338
REMARK  141  A    between atoms: _341  and  _343
REMARK  142  A    between atoms: _343  and  _344
REMARK  143  A    between atoms: _343  and  _346
REMARK  144  A    between atoms: _346  and  _347
REMARK  145  A    between atoms: _350  and  _352
REMARK  146  A    between atoms: _352  and  _353
REMARK  147  A    between atoms: _352  and  _355
REMARK  148  A    between atoms: _355  and  _356
REMARK  149  A    between atoms: _362  and  _364
REMARK  150  A    between atoms: _364  and  _365
REMARK  151  A    between atoms: _368  and  _369
REMARK  152  A    between atoms: _374  and  _376
REMARK  153  A    between atoms: _376  and  _377
REMARK  154  A    between atoms: _376  and  _379
REMARK  155  A    between atoms: _379  and  _380
REMARK  156  A    between atoms: _385  and  _386
REMARK  157  A    between atoms: _388  and  _390
REMARK  158  A    between atoms: _390  and  _391
REMARK  159  A    between atoms: _390  and  _393
REMARK  160  A    between atoms: _393  and  _394
REMARK  161  A    between atoms: _394  and  _395
REMARK  162  A    between atoms: _398  and  _400
REMARK  163  A    between atoms: _400  and  _401
REMARK  164  A    between atoms: _400  and  _403
REMARK  165  A    between atoms: _406  and  _408
REMARK  166  A    between atoms: _408  and  _409
REMARK  167  A    between atoms: _408  and  _411
REMARK  168  A    between atoms: _411  and  _412
REMARK  169  A    between atoms: _415  and  _417
REMARK  170  A    between atoms: _417  and  _418
REMARK  171  A    between atoms: _417  and  _420
REMARK  172  A    between atoms: _420  and  _421
REMARK  173  A    between atoms: _421  and  _422
REMARK  174  A    between atoms: _422  and  _423
REMARK  175  A    between atoms: _432  and  _434
REMARK  176  A    between atoms: _434  and  _435
REMARK  177  A    between atoms: _434  and  _437
REMARK  178  A    between atoms: _437  and  _438
REMARK  179  A    between atoms: _443  and  _445
REMARK  180  A    between atoms: _445  and  _446
REMARK  181  A    between atoms: _445  and  _448
REMARK  182  A    between atoms: _448  and  _449
REMARK  183  A    between atoms: _451  and  _453
REMARK  184  A    between atoms: _453  and  _454
REMARK  185  A    between atoms: _453  and  _456
REMARK  186  A    between atoms: _456  and  _457
REMARK  187  A    between atoms: _460  and  _462
REMARK  188  A    between atoms: _462  and  _463
REMARK  189  A    between atoms: _465  and  _467
REMARK  190  A    between atoms: _467  and  _468
REMARK  191  A    between atoms: _467  and  _470
REMARK  192  A    between atoms: _473  and  _475
REMARK  193  A    between atoms: _475  and  _476
REMARK  194  A    between atoms: _475  and  _478
REMARK  195  A    between atoms: _478  and  _479
REMARK  196  A    between atoms: _482  and  _484
REMARK  197  A    between atoms: _484  and  _485
REMARK  198  A    between atoms: _484  and  _487
REMARK  199  A    between atoms: _487  and  _488
REMARK  200  A    between atoms: _492  and  _493
REMARK  201  A    between atoms: _498  and  _500
REMARK  202  A    between atoms: _500  and  _501
REMARK  203  A    between atoms: _503  and  _505
REMARK  204  A    between atoms: _505  and  _506
REMARK  205  A    between atoms: _505  and  _508
REMARK  206  A    between atoms: _511  and  _513
REMARK  207  A    between atoms: _513  and  _514
REMARK  208  A    between atoms: _513  and  _516
REMARK  209  A    between atoms: _516  and  _517
REMARK  210  A    between atoms: _517  and  _518
REMARK  211  A    between atoms: _518  and  _519
REMARK  212  A    between atoms: _529  and  _530
REMARK  213  A    between atoms: _535  and  _537
REMARK  214  A    between atoms: _537  and  _538
REMARK  215  A    between atoms: _537  and  _540
REMARK  216  A    between atoms: _540  and  _541
REMARK  217  A    between atoms: _546  and  _548
REMARK  218  A    between atoms: _548  and  _549
REMARK  219  A    between atoms: _548  and  _551
REMARK  220  A    between atoms: _551  and  _552
REMARK  221  A    between atoms: _554  and  _556
REMARK  222  A    between atoms: _556  and  _557
REMARK  223  A    between atoms: _556  and  _559
REMARK  224  A    between atoms: _559  and  _560
REMARK  225  A    between atoms: _562  and  _564
REMARK  226  A    between atoms: _564  and  _565
REMARK  227  A    between atoms: _564  and  _567
REMARK  228  A    between atoms: _567  and  _568
REMARK  229  A    between atoms: _571  and  _573
REMARK  230  A    between atoms: _573  and  _574
REMARK  231  A    between atoms: _573  and  _576
REMARK  232  A    between atoms: _576  and  _577
REMARK  233  A    between atoms: _583  and  _585
REMARK  234  A    between atoms: _585  and  _586
REMARK  235  A    between atoms: _585  and  _588
REMARK  236  A    between atoms: _588  and  _589
REMARK  237  A    between atoms: _594  and  _596
REMARK  238  A    between atoms: _596  and  _597
REMARK  239  A    between atoms: _599  and  _601
REMARK  240  A    between atoms: _601  and  _602
REMARK  241  A    between atoms: _601  and  _604
REMARK  242  A    between atoms: _604  and  _605
REMARK  243  A    between atoms: _605  and  _606
REMARK  244  A    between atoms: _606  and  _607
REMARK  245  A    between atoms: _616  and  _618
REMARK  246  A    between atoms: _618  and  _619
REMARK  247  A    between atoms: _618  and  _621
REMARK  248  A    between atoms: _621  and  _622
REMARK  249  A    between atoms: _625  and  _627
REMARK  250  A    between atoms: _627  and  _628
REMARK  251  A    between atoms: _627  and  _630
REMARK  252  A    between atoms: _630  and  _631
REMARK                            x       y       z     vdW  Elec       q    Type
REMARK                         _______ _______ _______ _____ _____    ______ ____
ROOT
ATOM      1  CB  PHE A   1      13.259 -50.635  -4.770  0.00  0.00    +0.051 C 
ENDROOT
BRANCH   1   2
ATOM      2  CG  PHE A   1      13.881 -51.648  -3.885  0.00  0.00    -0.020 A 
ATOM      3  CD2 PHE A   1      14.356 -51.283  -2.633  0.00  0.00    -0.004 A 
ATOM      4  CE2 PHE A   1      14.957 -52.201  -1.794  0.00  0.00    -0.000 A 
ATOM      5  CZ  PHE A   1      15.050 -53.570  -2.223  0.00  0.00    -0.000 A 
ATOM      6  CE1 PHE A   1      14.545 -53.948  -3.475  0.00  0.00    -0.000 A 
ATOM      7  CD1 PHE A   1      13.965 -52.994  -4.293  0.00  0.00    -0.004 A 
ENDBRANCH   1   2
BRANCH   1   8
ATOM      8  CA  PHE A   1      14.014 -50.428  -6.077  0.00  0.00    +0.137 C 
BRANCH   8   9
ATOM      9  N   PHE A   1      15.417 -49.935  -5.843  0.00  0.00    -0.239 NA
ATOM     10  H   PHE A   1      15.667 -49.547  -4.911  0.00  0.00    +0.142 HD
ENDBRANCH   8   9
BRANCH   8  11
ATOM     11  C   PHE A   1      13.194 -49.550  -7.014  0.00  0.00    +0.224 C 
ATOM     12  O   PHE A   1      12.564 -50.059  -7.938  0.00  0.00    -0.287 OA
ENDBRANCH   8  11
ENDBRANCH   1   8
TORSDOF 4
REMARK  Name = ../refined-set-2016/2wr8/2wr8_pocket.pdb
REMARK  252 active torsions:
REMARK  status: ('A' for Active; 'I' for Inactive)
REMARK    1  A    between atoms: _1  and  _3
REMARK    2  A    between atoms: _3  and  _4
REMARK    3  A    between atoms: _3  and  _6
REMARK    4  A    between atoms: _6  and  _7
REMARK    5  A    between atoms: _13  and  _15
REMARK    6  A    between atoms: _15  and  _16
REMARK    7  A    between atoms: _15  and  _18
REMARK    8  A    between atoms: _18  and  _19
REMARK    9  A    between atoms: _24  and  _25
REMARK   10  A    between atoms: _27  and  _29
REMARK   11  A    between atoms: _29  and  _30
REMARK   12  A    between atoms: _29  and  _32
REMARK   13  A    between atoms: _32  and  _33
REMARK   14  A    between atoms: _36  and  _38
REMARK   15  A    between atoms: _38  and  _39
REMARK   16  A    between atoms: _38  and  _41
REMARK   17  A    between atoms: _41  and  _42
REMARK   18  A    between atoms: _45  and  _47
REMARK   19  A    between atoms: _47  and  _48
REMARK   20  A    between atoms: _47  and  _50
REMARK   21  A    between atoms: _50  and  _51
REMARK   22  A    between atoms: _57  and  _59
REMARK   23  A    between atoms: _59  and  _60
REMARK   24  A    between atoms: _62  and  _64
REMARK   25  A    between atoms: _64  and  _65
REMARK   26  A    between atoms: _64  and  _67
REMARK   27  A    between atoms: _67  and  _68
REMARK   28  A    between atoms: _73  and  _75
REMARK   29  A    between atoms: _75  and  _76
REMARK   30  A    between atoms: _75  and  _78
REMARK   31  A    between atoms: _81  and  _83
REMARK   32  A    between atoms: _83  and  _84
REMARK   33  A    between atoms: _83  and  _86
REMARK   34  A    between atoms: _86  and  _87
REMARK   35  A    between atoms: _90  and  _92
REMARK   36  A    between atoms: _92  and  _93
REMARK   37  A    between atoms: _92  and  _95
REMARK   38  A    between atoms: _95  and  _96
REMARK   39  A    between atoms: _96  and  _97
REMARK   40  A    between atoms: _100  and  _102
REMARK   41  A    between atoms: _102  and  _103
REMARK   42  A    between atoms: _102  and  _105
REMARK   43  A    between atoms: _105  and  _106
REMARK   44  A    between atoms: _109  and  _111
REMARK   45  A    between atoms: _111  and  _112
REMARK   46  A    between atoms: _111  and  _114
REMARK   47  A    between atoms: _114  and  _115
REMARK   48  A    between atoms: _120  and  _121
REMARK   49  A    between atoms: _123  and  _125
REMARK   50  A    between atoms: _125  and  _126
REMARK   51  A    between atoms: _128  and  _130
REMARK   52  A    between atoms: _130  and  _131
REMARK   53  A    between atoms: _130  and  _133
REMARK   54  A    between atoms: _133  and  _134
REMARK   55  A    between atoms: _137  and  _139
REMARK   56  A    between atoms: _139  and  _140
REMARK   57  A    between atoms: _139  and  _142
REMARK   58  A    between atoms: _145  and  _147
REMARK   59  A    between atoms: _147  and  _148
REMARK   60  A    between atoms: _147  and  _150
REMARK   61  A    between atoms: _150  and  _151
REMARK   62  A    between atoms: _151  and  _152
REMARK   63  A    between atoms: _152  and  _153
REMARK   64  A    between atoms: _153  and  _154
REMARK   65  A    between atoms: _158  and  _160
REMARK   66  A    between atoms: _160  and  _161
REMARK   67  A    between atoms: _163  and  _165
REMARK   68  A    between atoms: _165  and  _166
REMARK   69  A    between atoms: _165  and  _168
REMARK   70  A    between atoms: _168  and  _169
REMARK   71  A    between atoms: _169  and  _170
REMARK   72  A    between atoms: _173  and  _175
REMARK   73  A    between atoms: _175  and  _176
REMARK   74  A    between atoms: _175  and  _178
REMARK   75  A    between atoms: _178  and  _179
REMARK   76  A    between atoms: _182  and  _184
REMARK   77  A    between atoms: _184  and  _185
REMARK   78  A    between atoms: _184  and  _187
REMARK   79  A    between atoms: _187  and  _188
REMARK   80  A    between atoms: _192  and  _193
REMARK   81  A    between atoms: _198  and  _200
REMARK   82  A    between atoms: _200  and  _201
REMARK   83  A    between atoms: _203  and  _205
REMARK   84  A    between atoms: _205  and  _206
REMARK   85  A    between atoms: _205  and  _208
REMARK   86  A    between atoms: _208  and  _209
REMARK   87  A    between atoms: _211  and  _213
REMARK   88  A    between atoms: _213  and  _214
REMARK   89  A    between atoms: _213  and  _216
REMARK   90  A    between atoms: _216  and  _217
REMARK   91  A    between atoms: _222  and  _224
REMARK   92  A    between atoms: _224  and  _225
REMARK   93  A    between atoms: _224  and  _227
REMARK   94  A    between atoms: _227  and  _228
REMARK   95  A    between atoms: _231  and  _233
REMARK   96  A    between atoms: _233  and  _234
REMARK   97  A    between atoms: _233  and  _236
REMARK   98  A    between atoms: _236  and  _237
REMARK   99  A    between atoms: _242  and  _243
REMARK  100  A    between atoms: _245  and  _247
REMARK  101  A    between atoms: _247  and  _248
REMARK  102  A    between atoms: _247  and  _250
REMARK  103  A    between atoms: _250  and  _251
REMARK  104  A    between atoms: _251  and  _252
REMARK  105  A    between atoms: _255  and  _257
REMARK  106  A    between atoms: _257  and  _258
REMARK  107  A    between atoms: _257  and  _260
REMARK  108  A    between atoms: _260  and  _261
REMARK  109  A    between atoms: _264  and  _266
REMARK  110  A    between atoms: _266  and  _267
REMARK  111  A    between atoms: _270  and  _272
REMARK  112  A    between atoms: _272  and  _273
REMARK  113  A    between atoms: _272  and  _275
REMARK  114  A    between atoms: _278  and  _280
REMARK  115  A    between atoms: _280  and  _281
REMARK  116  A    between atoms: _280  and  _283
REMARK  117  A    between atoms: _283  and  _284
REMARK  118  A    between atoms: _289  and  _291
REMARK  119  A    between atoms: _291  and  _292
REMARK  120  A    between atoms: _291  and  _294
REMARK  121  A    between atoms: _294  and  _295
REMARK  122  A    between atoms: _295  and  _296
REMARK  123  A    between atoms: _298  and  _300
REMARK  124  A    between atoms: _300  and  _301
REMARK  125  A    between atoms: _303  and  _305
REMARK  126  A    between atoms: _305  and  _306
REMARK  127  A    between atoms: _305  and  _308
REMARK  128  A    between atoms: _308  and  _309
REMARK  129  A    between atoms: _311  and  _313
REMARK  130  A    between atoms: _313  and  _314
REMARK  131  A    between atoms: _317  and  _319
REMARK  132  A    between atoms: _319  and  _320
REMARK  133  A    between atoms: _323  and  _325
REMARK  134  A    between atoms: _325  and  _326
REMARK  135  A    between atoms: _325  and  _328
REMARK  136  A    between atoms: _328  and  _329
REMARK  137  A    between atoms: _332  and  _334
REMARK  138  A    between atoms: _334  and  _335
REMARK  139  A    between atoms: _334  and  _337
REMARK  140  A    between atoms: _337  and  _338
REMARK  141  A    between atoms: _341  and  _343
REMARK  142  A    between atoms: _343  and  _344
REMARK  143  A    between atoms: _343  and  _346
REMARK  144  A    between atoms: _346  and  _347
REMARK  145  A    between atoms: _350  and  _352
REMARK  146  A    between atoms: _352  and  _353
REMARK  147  A    between atoms: _352  and  _355
REMARK  148  A    between atoms: _355  and  _356
REMARK  149  A    between atoms: _362  and  _364
REMARK  150  A    between atoms: _364  and  _365
REMARK  151  A    between atoms: _368  and  _369
REMARK  152  A    between atoms: _374  and  _376
REMARK  153  A    between atoms: _376  and  _377
REMARK  154  A    between atoms: _376  and  _379
REMARK  155  A    between atoms: _379  and  _380
REMARK  156  A    between atoms: _385  and  _386
REMARK  157  A    between atoms: _388  and  _390
REMARK  158  A    between atoms: _390  and  _391
REMARK  159  A    between atoms: _390  and  _393
REMARK  160  A    between atoms: _393  and  _394
REMARK  161  A    between atoms: _394  and  _395
REMARK  162  A    between atoms: _398  and  _400
REMARK  163  A    between atoms: _400  and  _401
REMARK  164  A    between atoms: _400  and  _403
REMARK  165  A    between atoms: _406  and  _408
REMARK  166  A    between atoms: _408  and  _409
REMARK  167  A    between atoms: _408  and  _411
REMARK  168  A    between atoms: _411  and  _412
REMARK  169  A    between atoms: _415  and  _417
REMARK  170  A    between atoms: _417  and  _418
REMARK  171  A    between atoms: _417  and  _420
REMARK  172  A    between atoms: _420  and  _421
REMARK  173  A    between atoms: _421  and  _422
REMARK  174  A    between atoms: _422  and  _423
REMARK  175  A    between atoms: _432  and  _434
REMARK  176  A    between atoms: _434  and  _435
REMARK  177  A    between atoms: _434  and  _437
REMARK  178  A    between atoms: _437  and  _438
REMARK  179  A    between atoms: _443  and  _445
REMARK  180  A    between atoms: _445  and  _446
REMARK  181  A    between atoms: _445  and  _448
REMARK  182  A    between atoms: _448  and  _449
REMARK  183  A    between atoms: _451  and  _453
REMARK  184  A    between atoms: _453  and  _454
REMARK  185  A    between atoms: _453  and  _456
REMARK  186  A    between atoms: _456  and  _457
REMARK  187  A    between atoms: _460  and  _462
REMARK  188  A    between atoms: _462  and  _463
REMARK  189  A    between atoms: _465  and  _467
REMARK  190  A    between atoms: _467  and  _468
REMARK  191  A    between atoms: _467  and  _470
REMARK  192  A    between atoms: _473  and  _475
REMARK  193  A    between atoms: _475  and  _476
REMARK  194  A    between atoms: _475  and  _478
REMARK  195  A    between atoms: _478  and  _479
REMARK  196  A    between atoms: _482  and  _484
REMARK  197  A    between atoms: _484  and  _485
REMARK  198  A    between atoms: _484  and  _487
REMARK  199  A    between atoms: _487  and  _488
REMARK  200  A    between atoms: _492  and  _493
REMARK  201  A    between atoms: _498  and  _500
REMARK  202  A    between atoms: _500  and  _501
REMARK  203  A    between atoms: _503  and  _505
REMARK  204  A    between atoms: _505  and  _506
REMARK  205  A    between atoms: _505  and  _508
REMARK  206  A    between atoms: _511  and  _513
REMARK  207  A    between atoms: _513  and  _514
REMARK  208  A    between atoms: _513  and  _516
REMARK  209  A    between atoms: _516  and  _517
REMARK  210  A    between atoms: _517  and  _518
REMARK  211  A    between atoms: _518  and  _519
REMARK  212  A    between atoms: _529  and  _530
REMARK  213  A    between atoms: _535  and  _537
REMARK  214  A    between atoms: _537  and  _538
REMARK  215  A    between atoms: _537  and  _540
REMARK  216  A    between atoms: _540  and  _541
REMARK  217  A    between atoms: _546  and  _548
REMARK  218  A    between atoms: _548  and  _549
REMARK  219  A    between atoms: _548  and  _551
REMARK  220  A    between atoms: _551  and  _552
REMARK  221  A    between atoms: _554  and  _556
REMARK  222  A    between atoms: _556  and  _557
REMARK  223  A    between atoms: _556  and  _559
REMARK  224  A    between atoms: _559  and  _560
REMARK  225  A    between atoms: _562  and  _564
REMARK  226  A    between atoms: _564  and  _565
REMARK  227  A    between atoms: _564  and  _567
REMARK  228  A    between atoms: _567  and  _568
REMARK  229  A    between atoms: _571  and  _573
REMARK  230  A    between atoms: _573  and  _574
REMARK  231  A    between atoms: _573  and  _576
REMARK  232  A    between atoms: _576  and  _577
REMARK  233  A    between atoms: _583  and  _585
REMARK  234  A    between atoms: _585  and  _586
REMARK  235  A    between atoms: _585  and  _588
REMARK  236  A    between atoms: _588  and  _589
REMARK  237  A    between atoms: _594  and  _596
REMARK  238  A    between atoms: _596  and  _597
REMARK  239  A    between atoms: _599  and  _601
REMARK  240  A    between atoms: _601  and  _602
REMARK  241  A    between atoms: _601  and  _604
REMARK  242  A    between atoms: _604  and  _605
REMARK  243  A    between atoms: _605  and  _606
REMARK  244  A    between atoms: _606  and  _607
REMARK  245  A    between atoms: _616  and  _618
REMARK  246  A    between atoms: _618  and  _619
REMARK  247  A    between atoms: _618  and  _621
REMARK  248  A    between atoms: _621  and  _622
REMARK  249  A    between atoms: _625  and  _627
REMARK  250  A    between atoms: _627  and  _628
REMARK  251  A    between atoms: _627  and  _630
REMARK  252  A    between atoms: _630  and  _631
REMARK                            x       y       z     vdW  Elec       q    Type
REMARK                         _______ _______ _______ _____ _____    ______ ____
ROOT
ATOM      1  O   HOH     1      10.298 -39.542   6.918  0.00  0.00    +0.000 OA
ENDROOT
TORSDOF 0
REMARK  Name = ../refined-set-2016/2wr8/2wr8_pocket.pdb
REMARK  252 active torsions:
REMARK  status: ('A' for Active; 'I' for Inactive)
REMARK    1  A    between atoms: _1  and  _3
REMARK    2  A    between atoms: _3  and  _4
REMARK    3  A    between atoms: _3  and  _6
REMARK    4  A    between atoms: _6  and  _7
REMARK    5  A    between atoms: _13  and  _15
REMARK    6  A    between atoms: _15  and  _16
REMARK    7  A    between atoms: _15  and  _18
REMARK    8  A    between atoms: _18  and  _19
REMARK    9  A    between atoms: _24  and  _25
REMARK   10  A    between atoms: _27  and  _29
REMARK   11  A    between atoms: _29  and  _30
REMARK   12  A    between atoms: _29  and  _32
REMARK   13  A    between atoms: _32  and  _33
REMARK   14  A    between atoms: _36  and  _38
REMARK   15  A    between atoms: _38  and  _39
REMARK   16  A    between atoms: _38  and  _41
REMARK   17  A    between atoms: _41  and  _42
REMARK   18  A    between atoms: _45  and  _47
REMARK   19  A    between atoms: _47  and  _48
REMARK   20  A    between atoms: _47  and  _50
REMARK   21  A    between atoms: _50  and  _51
REMARK   22  A    between atoms: _57  and  _59
REMARK   23  A    between atoms: _59  and  _60
REMARK   24  A    between atoms: _62  and  _64
REMARK   25  A    between atoms: _64  and  _65
REMARK   26  A    between atoms: _64  and  _67
REMARK   27  A    between atoms: _67  and  _68
REMARK   28  A    between atoms: _73  and  _75
REMARK   29  A    between atoms: _75  and  _76
REMARK   30  A    between atoms: _75  and  _78
REMARK   31  A    between atoms: _81  and  _83
REMARK   32  A    between atoms: _83  and  _84
REMARK   33  A    between atoms: _83  and  _86
REMARK   34  A    between atoms: _86  and  _87
REMARK   35  A    between atoms: _90  and  _92
REMARK   36  A    between atoms: _92  and  _93
REMARK   37  A    between atoms: _92  and  _95
REMARK   38  A    between atoms: _95  and  _96
REMARK   39  A    between atoms: _96  and  _97
REMARK   40  A    between atoms: _100  and  _102
REMARK   41  A    between atoms: _102  and  _103
REMARK   42  A    between atoms: _102  and  _105
REMARK   43  A    between atoms: _105  and  _106
REMARK   44  A    between atoms: _109  and  _111
REMARK   45  A    between atoms: _111  and  _112
REMARK   46  A    between atoms: _111  and  _114
REMARK   47  A    between atoms: _114  and  _115
REMARK   48  A    between atoms: _120  and  _121
REMARK   49  A    between atoms: _123  and  _125
REMARK   50  A    between atoms: _125  and  _126
REMARK   51  A    between atoms: _128  and  _130
REMARK   52  A    between atoms: _130  and  _131
REMARK   53  A    between atoms: _130  and  _133
REMARK   54  A    between atoms: _133  and  _134
REMARK   55  A    between atoms: _137  and  _139
REMARK   56  A    between atoms: _139  and  _140
REMARK   57  A    between atoms: _139  and  _142
REMARK   58  A    between atoms: _145  and  _147
REMARK   59  A    between atoms: _147  and  _148
REMARK   60  A    between atoms: _147  and  _150
REMARK   61  A    between atoms: _150  and  _151
REMARK   62  A    between atoms: _151  and  _152
REMARK   63  A    between atoms: _152  and  _153
REMARK   64  A    between atoms: _153  and  _154
REMARK   65  A    between atoms: _158  and  _160
REMARK   66  A    between atoms: _160  and  _161
REMARK   67  A    between atoms: _163  and  _165
REMARK   68  A    between atoms: _165  and  _166
REMARK   69  A    between atoms: _165  and  _168
REMARK   70  A    between atoms: _168  and  _169
REMARK   71  A    between atoms: _169  and  _170
REMARK   72  A    between atoms: _173  and  _175
REMARK   73  A    between atoms: _175  and  _176
REMARK   74  A    between atoms: _175  and  _178
REMARK   75  A    between atoms: _178  and  _179
REMARK   76  A    between atoms: _182  and  _184
REMARK   77  A    between atoms: _184  and  _185
REMARK   78  A    between atoms: _184  and  _187
REMARK   79  A    between atoms: _187  and  _188
REMARK   80  A    between atoms: _192  and  _193
REMARK   81  A    between atoms: _198  and  _200
REMARK   82  A    between atoms: _200  and  _201
REMARK   83  A    between atoms: _203  and  _205
REMARK   84  A    between atoms: _205  and  _206
REMARK   85  A    between atoms: _205  and  _208
REMARK   86  A    between atoms: _208  and  _209
REMARK   87  A    between atoms: _211  and  _213
REMARK   88  A    between atoms: _213  and  _214
REMARK   89  A    between atoms: _213  and  _216
REMARK   90  A    between atoms: _216  and  _217
REMARK   91  A    between atoms: _222  and  _224
REMARK   92  A    between atoms: _224  and  _225
REMARK   93  A    between atoms: _224  and  _227
REMARK   94  A    between atoms: _227  and  _228
REMARK   95  A    between atoms: _231  and  _233
REMARK   96  A    between atoms: _233  and  _234
REMARK   97  A    between atoms: _233  and  _236
REMARK   98  A    between atoms: _236  and  _237
REMARK   99  A    between atoms: _242  and  _243
REMARK  100  A    between atoms: _245  and  _247
REMARK  101  A    between atoms: _247  and  _248
REMARK  102  A    between atoms: _247  and  _250
REMARK  103  A    between atoms: _250  and  _251
REMARK  104  A    between atoms: _251  and  _252
REMARK  105  A    between atoms: _255  and  _257
REMARK  106  A    between atoms: _257  and  _258
REMARK  107  A    between atoms: _257  and  _260
REMARK  108  A    between atoms: _260  and  _261
REMARK  109  A    between atoms: _264  and  _266
REMARK  110  A    between atoms: _266  and  _267
REMARK  111  A    between atoms: _270  and  _272
REMARK  112  A    between atoms: _272  and  _273
REMARK  113  A    between atoms: _272  and  _275
REMARK  114  A    between atoms: _278  and  _280
REMARK  115  A    between atoms: _280  and  _281
REMARK  116  A    between atoms: _280  and  _283
REMARK  117  A    between atoms: _283  and  _284
REMARK  118  A    between atoms: _289  and  _291
REMARK  119  A    between atoms: _291  and  _292
REMARK  120  A    between atoms: _291  and  _294
REMARK  121  A    between atoms: _294  and  _295
REMARK  122  A    between atoms: _295  and  _296
REMARK  123  A    between atoms: _298  and  _300
REMARK  124  A    between atoms: _300  and  _301
REMARK  125  A    between atoms: _303  and  _305
REMARK  126  A    between atoms: _305  and  _306
REMARK  127  A    between atoms: _305  and  _308
REMARK  128  A    between atoms: _308  and  _309
REMARK  129  A    between atoms: _311  and  _313
REMARK  130  A    between atoms: _313  and  _314
REMARK  131  A    between atoms: _317  and  _319
REMARK  132  A    between atoms: _319  and  _320
REMARK  133  A    between atoms: _323  and  _325
REMARK  134  A    between atoms: _325  and  _326
REMARK  135  A    between atoms: _325  and  _328
REMARK  136  A    between atoms: _328  and  _329
REMARK  137  A    between atoms: _332  and  _334
REMARK  138  A    between atoms: _334  and  _335
REMARK  139  A    between atoms: _334  and  _337
REMARK  140  A    between atoms: _337  and  _338
REMARK  141  A    between atoms: _341  and  _343
REMARK  142  A    between atoms: _343  and  _344
REMARK  143  A    between atoms: _343  and  _346
REMARK  144  A    between atoms: _346  and  _347
REMARK  145  A    between atoms: _350  and  _352
REMARK  146  A    between atoms: _352  and  _353
REMARK  147  A    between atoms: _352  and  _355
REMARK  148  A    between atoms: _355  and  _356
REMARK  149  A    between atoms: _362  and  _364
REMARK  150  A    between atoms: _364  and  _365
REMARK  151  A    between atoms: _368  and  _369
REMARK  152  A    between atoms: _374  and  _376
REMARK  153  A    between atoms: _376  and  _377
REMARK  154  A    between atoms: _376  and  _379
REMARK  155  A    between atoms: _379  and  _380
REMARK  156  A    between atoms: _385  and  _386
REMARK  157  A    between atoms: _388  and  _390
REMARK  158  A    between atoms: _390  and  _391
REMARK  159  A    between atoms: _390  and  _393
REMARK  160  A    between atoms: _393  and  _394
REMARK  161  A    between atoms: _394  and  _395
REMARK  162  A    between atoms: _398  and  _400
REMARK  163  A    between atoms: _400  and  _401
REMARK  164  A    between atoms: _400  and  _403
REMARK  165  A    between atoms: _406  and  _408
REMARK  166  A    between atoms: _408  and  _409
REMARK  167  A    between atoms: _408  and  _411
REMARK  168  A    between atoms: _411  and  _412
REMARK  169  A    between atoms: _415  and  _417
REMARK  170  A    between atoms: _417  and  _418
REMARK  171  A    between atoms: _417  and  _420
REMARK  172  A    between atoms: _420  and  _421
REMARK  173  A    between atoms: _421  and  _422
REMARK  174  A    between atoms: _422  and  _423
REMARK  175  A    between atoms: _432  and  _434
REMARK  176  A    between atoms: _434  and  _435
REMARK  177  A    between atoms: _434  and  _437
REMARK  178  A    between atoms: _437  and  _438
REMARK  179  A    between atoms: _443  and  _445
REMARK  180  A    between atoms: _445  and  _446
REMARK  181  A    between atoms: _445  and  _448
REMARK  182  A    between atoms: _448  and  _449
REMARK  183  A    between atoms: _451  and  _453
REMARK  184  A    between atoms: _453  and  _454
REMARK  185  A    between atoms: _453  and  _456
REMARK  186  A    between atoms: _456  and  _457
REMARK  187  A    between atoms: _460  and  _462
REMARK  188  A    between atoms: _462  and  _463
REMARK  189  A    between atoms: _465  and  _467
REMARK  190  A    between atoms: _467  and  _468
REMARK  191  A    between atoms: _467  and  _470
REMARK  192  A    between atoms: _473  and  _475
REMARK  193  A    between atoms: _475  and  _476
REMARK  194  A    between atoms: _475  and  _478
REMARK  195  A    between atoms: _478  and  _479
REMARK  196  A    between atoms: _482  and  _484
REMARK  197  A    between atoms: _484  and  _485
REMARK  198  A    between atoms: _484  and  _487
REMARK  199  A    between atoms: _487  and  _488
REMARK  200  A    between atoms: _492  and  _493
REMARK  201  A    between atoms: _498  and  _500
REMARK  202  A    between atoms: _500  and  _501
REMARK  203  A    between atoms: _503  and  _505
REMARK  204  A    between atoms: _505  and  _506
REMARK  205  A    between atoms: _505  and  _508
REMARK  206  A    between atoms: _511  and  _513
REMARK  207  A    between atoms: _513  and  _514
REMARK  208  A    between atoms: _513  and  _516
REMARK  209  A    between atoms: _516  and  _517
REMARK  210  A    between atoms: _517  and  _518
REMARK  211  A    between atoms: _518  and  _519
REMARK  212  A    between atoms: _529  and  _530
REMARK  213  A    between atoms: _535  and  _537
REMARK  214  A    between atoms: _537  and  _538
REMARK  215  A    between atoms: _537  and  _540
REMARK  216  A    between atoms: _540  and  _541
REMARK  217  A    between atoms: _546  and  _548
REMARK  218  A    between atoms: _548  and  _549
REMARK  219  A    between atoms: _548  and  _551
REMARK  220  A    between atoms: _551  and  _552
REMARK  221  A    between atoms: _554  and  _556
REMARK  222  A    between atoms: _556  and  _557
REMARK  223  A    between atoms: _556  and  _559
REMARK  224  A    between atoms: _559  and  _560
REMARK  225  A    between atoms: _562  and  _564
REMARK  226  A    between atoms: _564  and  _565
REMARK  227  A    between atoms: _564  and  _567
REMARK  228  A    between atoms: _567  and  _568
REMARK  229  A    between atoms: _571  and  _573
REMARK  230  A    between atoms: _573  and  _574
REMARK  231  A    between atoms: _573  and  _576
REMARK  232  A    between atoms: _576  and  _577
REMARK  233  A    between atoms: _583  and  _585
REMARK  234  A    between atoms: _585  and  _586
REMARK  235  A    between atoms: _585  and  _588
REMARK  236  A    between atoms: _588  and  _589
REMARK  237  A    between atoms: _594  and  _596
REMARK  238  A    between atoms: _596  and  _597
REMARK  239  A    between atoms: _599  and  _601
REMARK  240  A    between atoms: _601  and  _602
REMARK  241  A    between atoms: _601  and  _604
REMARK  242  A    between atoms: _604  and  _605
REMARK  243  A    between atoms: _605  and  _606
REMARK  244  A    between atoms: _606  and  _607
REMARK  245  A    between atoms: _616  and  _618
REMARK  246  A    between atoms: _618  and  _619
REMARK  247  A    between atoms: _618  and  _621
REMARK  248  A    between atoms: _621  and  _622
REMARK  249  A    between atoms: _625  and  _627
REMARK  250  A    between atoms: _627  and  _628
REMARK  251  A    between atoms: _627  and  _630
REMARK  252  A    between atoms: _630  and  _631
REMARK                            x       y       z     vdW  Elec       q    Type
REMARK                         _______ _______ _______ _____ _____    ______ ____
ROOT
ATOM      1  O   HOH     1       7.723 -44.184  11.391  0.00  0.00    +0.000 OA
ENDROOT
TORSDOF 0
REMARK  Name = ../refined-set-2016/2wr8/2wr8_pocket.pdb
REMARK  252 active torsions:
REMARK  status: ('A' for Active; 'I' for Inactive)
REMARK    1  A    between atoms: _1  and  _3
REMARK    2  A    between atoms: _3  and  _4
REMARK    3  A    between atoms: _3  and  _6
REMARK    4  A    between atoms: _6  and  _7
REMARK    5  A    between atoms: _13  and  _15
REMARK    6  A    between atoms: _15  and  _16
REMARK    7  A    between atoms: _15  and  _18
REMARK    8  A    between atoms: _18  and  _19
REMARK    9  A    between atoms: _24  and  _25
REMARK   10  A    between atoms: _27  and  _29
REMARK   11  A    between atoms: _29  and  _30
REMARK   12  A    between atoms: _29  and  _32
REMARK   13  A    between atoms: _32  and  _33
REMARK   14  A    between atoms: _36  and  _38
REMARK   15  A    between atoms: _38  and  _39
REMARK   16  A    between atoms: _38  and  _41
REMARK   17  A    between atoms: _41  and  _42
REMARK   18  A    between atoms: _45  and  _47
REMARK   19  A    between atoms: _47  and  _48
REMARK   20  A    between atoms: _47  and  _50
REMARK   21  A    between atoms: _50  and  _51
REMARK   22  A    between atoms: _57  and  _59
REMARK   23  A    between atoms: _59  and  _60
REMARK   24  A    between atoms: _62  and  _64
REMARK   25  A    between atoms: _64  and  _65
REMARK   26  A    between atoms: _64  and  _67
REMARK   27  A    between atoms: _67  and  _68
REMARK   28  A    between atoms: _73  and  _75
REMARK   29  A    between atoms: _75  and  _76
REMARK   30  A    between atoms: _75  and  _78
REMARK   31  A    between atoms: _81  and  _83
REMARK   32  A    between atoms: _83  and  _84
REMARK   33  A    between atoms: _83  and  _86
REMARK   34  A    between atoms: _86  and  _87
REMARK   35  A    between atoms: _90  and  _92
REMARK   36  A    between atoms: _92  and  _93
REMARK   37  A    between atoms: _92  and  _95
REMARK   38  A    between atoms: _95  and  _96
REMARK   39  A    between atoms: _96  and  _97
REMARK   40  A    between atoms: _100  and  _102
REMARK   41  A    between atoms: _102  and  _103
REMARK   42  A    between atoms: _102  and  _105
REMARK   43  A    between atoms: _105  and  _106
REMARK   44  A    between atoms: _109  and  _111
REMARK   45  A    between atoms: _111  and  _112
REMARK   46  A    between atoms: _111  and  _114
REMARK   47  A    between atoms: _114  and  _115
REMARK   48  A    between atoms: _120  and  _121
REMARK   49  A    between atoms: _123  and  _125
REMARK   50  A    between atoms: _125  and  _126
REMARK   51  A    between atoms: _128  and  _130
REMARK   52  A    between atoms: _130  and  _131
REMARK   53  A    between atoms: _130  and  _133
REMARK   54  A    between atoms: _133  and  _134
REMARK   55  A    between atoms: _137  and  _139
REMARK   56  A    between atoms: _139  and  _140
REMARK   57  A    between atoms: _139  and  _142
REMARK   58  A    between atoms: _145  and  _147
REMARK   59  A    between atoms: _147  and  _148
REMARK   60  A    between atoms: _147  and  _150
REMARK   61  A    between atoms: _150  and  _151
REMARK   62  A    between atoms: _151  and  _152
REMARK   63  A    between atoms: _152  and  _153
REMARK   64  A    between atoms: _153  and  _154
REMARK   65  A    between atoms: _158  and  _160
REMARK   66  A    between atoms: _160  and  _161
REMARK   67  A    between atoms: _163  and  _165
REMARK   68  A    between atoms: _165  and  _166
REMARK   69  A    between atoms: _165  and  _168
REMARK   70  A    between atoms: _168  and  _169
REMARK   71  A    between atoms: _169  and  _170
REMARK   72  A    between atoms: _173  and  _175
REMARK   73  A    between atoms: _175  and  _176
REMARK   74  A    between atoms: _175  and  _178
REMARK   75  A    between atoms: _178  and  _179
REMARK   76  A    between atoms: _182  and  _184
REMARK   77  A    between atoms: _184  and  _185
REMARK   78  A    between atoms: _184  and  _187
REMARK   79  A    between atoms: _187  and  _188
REMARK   80  A    between atoms: _192  and  _193
REMARK   81  A    between atoms: _198  and  _200
REMARK   82  A    between atoms: _200  and  _201
REMARK   83  A    between atoms: _203  and  _205
REMARK   84  A    between atoms: _205  and  _206
REMARK   85  A    between atoms: _205  and  _208
REMARK   86  A    between atoms: _208  and  _209
REMARK   87  A    between atoms: _211  and  _213
REMARK   88  A    between atoms: _213  and  _214
REMARK   89  A    between atoms: _213  and  _216
REMARK   90  A    between atoms: _216  and  _217
REMARK   91  A    between atoms: _222  and  _224
REMARK   92  A    between atoms: _224  and  _225
REMARK   93  A    between atoms: _224  and  _227
REMARK   94  A    between atoms: _227  and  _228
REMARK   95  A    between atoms: _231  and  _233
REMARK   96  A    between atoms: _233  and  _234
REMARK   97  A    between atoms: _233  and  _236
REMARK   98  A    between atoms: _236  and  _237
REMARK   99  A    between atoms: _242  and  _243
REMARK  100  A    between atoms: _245  and  _247
REMARK  101  A    between atoms: _247  and  _248
REMARK  102  A    between atoms: _247  and  _250
REMARK  103  A    between atoms: _250  and  _251
REMARK  104  A    between atoms: _251  and  _252
REMARK  105  A    between atoms: _255  and  _257
REMARK  106  A    between atoms: _257  and  _258
REMARK  107  A    between atoms: _257  and  _260
REMARK  108  A    between atoms: _260  and  _261
REMARK  109  A    between atoms: _264  and  _266
REMARK  110  A    between atoms: _266  and  _267
REMARK  111  A    between atoms: _270  and  _272
REMARK  112  A    between atoms: _272  and  _273
REMARK  113  A    between atoms: _272  and  _275
REMARK  114  A    between atoms: _278  and  _280
REMARK  115  A    between atoms: _280  and  _281
REMARK  116  A    between atoms: _280  and  _283
REMARK  117  A    between atoms: _283  and  _284
REMARK  118  A    between atoms: _289  and  _291
REMARK  119  A    between atoms: _291  and  _292
REMARK  120  A    between atoms: _291  and  _294
REMARK  121  A    between atoms: _294  and  _295
REMARK  122  A    between atoms: _295  and  _296
REMARK  123  A    between atoms: _298  and  _300
REMARK  124  A    between atoms: _300  and  _301
REMARK  125  A    between atoms: _303  and  _305
REMARK  126  A    between atoms: _305  and  _306
REMARK  127  A    between atoms: _305  and  _308
REMARK  128  A    between atoms: _308  and  _309
REMARK  129  A    between atoms: _311  and  _313
REMARK  130  A    between atoms: _313  and  _314
REMARK  131  A    between atoms: _317  and  _319
REMARK  132  A    between atoms: _319  and  _320
REMARK  133  A    between atoms: _323  and  _325
REMARK  134  A    between atoms: _325  and  _326
REMARK  135  A    between atoms: _325  and  _328
REMARK  136  A    between atoms: _328  and  _329
REMARK  137  A    between atoms: _332  and  _334
REMARK  138  A    between atoms: _334  and  _335
REMARK  139  A    between atoms: _334  and  _337
REMARK  140  A    between atoms: _337  and  _338
REMARK  141  A    between atoms: _341  and  _343
REMARK  142  A    between atoms: _343  and  _344
REMARK  143  A    between atoms: _343  and  _346
REMARK  144  A    between atoms: _346  and  _347
REMARK  145  A    between atoms: _350  and  _352
REMARK  146  A    between atoms: _352  and  _353
REMARK  147  A    between atoms: _352  and  _355
REMARK  148  A    between atoms: _355  and  _356
REMARK  149  A    between atoms: _362  and  _364
REMARK  150  A    between atoms: _364  and  _365
REMARK  151  A    between atoms: _368  and  _369
REMARK  152  A    between atoms: _374  and  _376
REMARK  153  A    between atoms: _376  and  _377
REMARK  154  A    between atoms: _376  and  _379
REMARK  155  A    between atoms: _379  and  _380
REMARK  156  A    between atoms: _385  and  _386
REMARK  157  A    between atoms: _388  and  _390
REMARK  158  A    between atoms: _390  and  _391
REMARK  159  A    between atoms: _390  and  _393
REMARK  160  A    between atoms: _393  and  _394
REMARK  161  A    between atoms: _394  and  _395
REMARK  162  A    between atoms: _398  and  _400
REMARK  163  A    between atoms: _400  and  _401
REMARK  164  A    between atoms: _400  and  _403
REMARK  165  A    between atoms: _406  and  _408
REMARK  166  A    between atoms: _408  and  _409
REMARK  167  A    between atoms: _408  and  _411
REMARK  168  A    between atoms: _411  and  _412
REMARK  169  A    between atoms: _415  and  _417
REMARK  170  A    between atoms: _417  and  _418
REMARK  171  A    between atoms: _417  and  _420
REMARK  172  A    between atoms: _420  and  _421
REMARK  173  A    between atoms: _421  and  _422
REMARK  174  A    between atoms: _422  and  _423
REMARK  175  A    between atoms: _432  and  _434
REMARK  176  A    between atoms: _434  and  _435
REMARK  177  A    between atoms: _434  and  _437
REMARK  178  A    between atoms: _437  and  _438
REMARK  179  A    between atoms: _443  and  _445
REMARK  180  A    between atoms: _445  and  _446
REMARK  181  A    between atoms: _445  and  _448
REMARK  182  A    between atoms: _448  and  _449
REMARK  183  A    between atoms: _451  and  _453
REMARK  184  A    between atoms: _453  and  _454
REMARK  185  A    between atoms: _453  and  _456
REMARK  186  A    between atoms: _456  and  _457
REMARK  187  A    between atoms: _460  and  _462
REMARK  188  A    between atoms: _462  and  _463
REMARK  189  A    between atoms: _465  and  _467
REMARK  190  A    between atoms: _467  and  _468
REMARK  191  A    between atoms: _467  and  _470
REMARK  192  A    between atoms: _473  and  _475
REMARK  193  A    between atoms: _475  and  _476
REMARK  194  A    between atoms: _475  and  _478
REMARK  195  A    between atoms: _478  and  _479
REMARK  196  A    between atoms: _482  and  _484
REMARK  197  A    between atoms: _484  and  _485
REMARK  198  A    between atoms: _484  and  _487
REMARK  199  A    between atoms: _487  and  _488
REMARK  200  A    between atoms: _492  and  _493
REMARK  201  A    between atoms: _498  and  _500
REMARK  202  A    between atoms: _500  and  _501
REMARK  203  A    between atoms: _503  and  _505
REMARK  204  A    between atoms: _505  and  _506
REMARK  205  A    between atoms: _505  and  _508
REMARK  206  A    between atoms: _511  and  _513
REMARK  207  A    between atoms: _513  and  _514
REMARK  208  A    between atoms: _513  and  _516
REMARK  209  A    between atoms: _516  and  _517
REMARK  210  A    between atoms: _517  and  _518
REMARK  211  A    between atoms: _518  and  _519
REMARK  212  A    between atoms: _529  and  _530
REMARK  213  A    between atoms: _535  and  _537
REMARK  214  A    between atoms: _537  and  _538
REMARK  215  A    between atoms: _537  and  _540
REMARK  216  A    between atoms: _540  and  _541
REMARK  217  A    between atoms: _546  and  _548
REMARK  218  A    between atoms: _548  and  _549
REMARK  219  A    between atoms: _548  and  _551
REMARK  220  A    between atoms: _551  and  _552
REMARK  221  A    between atoms: _554  and  _556
REMARK  222  A    between atoms: _556  and  _557
REMARK  223  A    between atoms: _556  and  _559
REMARK  224  A    between atoms: _559  and  _560
REMARK  225  A    between atoms: _562  and  _564
REMARK  226  A    between atoms: _564  and  _565
REMARK  227  A    between atoms: _564  and  _567
REMARK  228  A    between atoms: _567  and  _568
REMARK  229  A    between atoms: _571  and  _573
REMARK  230  A    between atoms: _573  and  _574
REMARK  231  A    between atoms: _573  and  _576
REMARK  232  A    between atoms: _576  and  _577
REMARK  233  A    between atoms: _583  and  _585
REMARK  234  A    between atoms: _585  and  _586
REMARK  235  A    between atoms: _585  and  _588
REMARK  236  A    between atoms: _588  and  _589
REMARK  237  A    between atoms: _594  and  _596
REMARK  238  A    between atoms: _596  and  _597
REMARK  239  A    between atoms: _599  and  _601
REMARK  240  A    between atoms: _601  and  _602
REMARK  241  A    between atoms: _601  and  _604
REMARK  242  A    between atoms: _604  and  _605
REMARK  243  A    between atoms: _605  and  _606
REMARK  244  A    between atoms: _606  and  _607
REMARK  245  A    between atoms: _616  and  _618
REMARK  246  A    between atoms: _618  and  _619
REMARK  247  A    between atoms: _618  and  _621
REMARK  248  A    between atoms: _621  and  _622
REMARK  249  A    between atoms: _625  and  _627
REMARK  250  A    between atoms: _627  and  _628
REMARK  251  A    between atoms: _627  and  _630
REMARK  252  A    between atoms: _630  and  _631
REMARK                            x       y       z     vdW  Elec       q    Type
REMARK                         _______ _______ _______ _____ _____    ______ ____
ROOT
ATOM      1  O   HOH     1      16.116 -43.194  15.164  0.00  0.00    +0.000 OA
ENDROOT
TORSDOF 0
REMARK  Name = ../refined-set-2016/2wr8/2wr8_pocket.pdb
REMARK  252 active torsions:
REMARK  status: ('A' for Active; 'I' for Inactive)
REMARK    1  A    between atoms: _1  and  _3
REMARK    2  A    between atoms: _3  and  _4
REMARK    3  A    between atoms: _3  and  _6
REMARK    4  A    between atoms: _6  and  _7
REMARK    5  A    between atoms: _13  and  _15
REMARK    6  A    between atoms: _15  and  _16
REMARK    7  A    between atoms: _15  and  _18
REMARK    8  A    between atoms: _18  and  _19
REMARK    9  A    between atoms: _24  and  _25
REMARK   10  A    between atoms: _27  and  _29
REMARK   11  A    between atoms: _29  and  _30
REMARK   12  A    between atoms: _29  and  _32
REMARK   13  A    between atoms: _32  and  _33
REMARK   14  A    between atoms: _36  and  _38
REMARK   15  A    between atoms: _38  and  _39
REMARK   16  A    between atoms: _38  and  _41
REMARK   17  A    between atoms: _41  and  _42
REMARK   18  A    between atoms: _45  and  _47
REMARK   19  A    between atoms: _47  and  _48
REMARK   20  A    between atoms: _47  and  _50
REMARK   21  A    between atoms: _50  and  _51
REMARK   22  A    between atoms: _57  and  _59
REMARK   23  A    between atoms: _59  and  _60
REMARK   24  A    between atoms: _62  and  _64
REMARK   25  A    between atoms: _64  and  _65
REMARK   26  A    between atoms: _64  and  _67
REMARK   27  A    between atoms: _67  and  _68
REMARK   28  A    between atoms: _73  and  _75
REMARK   29  A    between atoms: _75  and  _76
REMARK   30  A    between atoms: _75  and  _78
REMARK   31  A    between atoms: _81  and  _83
REMARK   32  A    between atoms: _83  and  _84
REMARK   33  A    between atoms: _83  and  _86
REMARK   34  A    between atoms: _86  and  _87
REMARK   35  A    between atoms: _90  and  _92
REMARK   36  A    between atoms: _92  and  _93
REMARK   37  A    between atoms: _92  and  _95
REMARK   38  A    between atoms: _95  and  _96
REMARK   39  A    between atoms: _96  and  _97
REMARK   40  A    between atoms: _100  and  _102
REMARK   41  A    between atoms: _102  and  _103
REMARK   42  A    between atoms: _102  and  _105
REMARK   43  A    between atoms: _105  and  _106
REMARK   44  A    between atoms: _109  and  _111
REMARK   45  A    between atoms: _111  and  _112
REMARK   46  A    between atoms: _111  and  _114
REMARK   47  A    between atoms: _114  and  _115
REMARK   48  A    between atoms: _120  and  _121
REMARK   49  A    between atoms: _123  and  _125
REMARK   50  A    between atoms: _125  and  _126
REMARK   51  A    between atoms: _128  and  _130
REMARK   52  A    between atoms: _130  and  _131
REMARK   53  A    between atoms: _130  and  _133
REMARK   54  A    between atoms: _133  and  _134
REMARK   55  A    between atoms: _137  and  _139
REMARK   56  A    between atoms: _139  and  _140
REMARK   57  A    between atoms: _139  and  _142
REMARK   58  A    between atoms: _145  and  _147
REMARK   59  A    between atoms: _147  and  _148
REMARK   60  A    between atoms: _147  and  _150
REMARK   61  A    between atoms: _150  and  _151
REMARK   62  A    between atoms: _151  and  _152
REMARK   63  A    between atoms: _152  and  _153
REMARK   64  A    between atoms: _153  and  _154
REMARK   65  A    between atoms: _158  and  _160
REMARK   66  A    between atoms: _160  and  _161
REMARK   67  A    between atoms: _163  and  _165
REMARK   68  A    between atoms: _165  and  _166
REMARK   69  A    between atoms: _165  and  _168
REMARK   70  A    between atoms: _168  and  _169
REMARK   71  A    between atoms: _169  and  _170
REMARK   72  A    between atoms: _173  and  _175
REMARK   73  A    between atoms: _175  and  _176
REMARK   74  A    between atoms: _175  and  _178
REMARK   75  A    between atoms: _178  and  _179
REMARK   76  A    between atoms: _182  and  _184
REMARK   77  A    between atoms: _184  and  _185
REMARK   78  A    between atoms: _184  and  _187
REMARK   79  A    between atoms: _187  and  _188
REMARK   80  A    between atoms: _192  and  _193
REMARK   81  A    between atoms: _198  and  _200
REMARK   82  A    between atoms: _200  and  _201
REMARK   83  A    between atoms: _203  and  _205
REMARK   84  A    between atoms: _205  and  _206
REMARK   85  A    between atoms: _205  and  _208
REMARK   86  A    between atoms: _208  and  _209
REMARK   87  A    between atoms: _211  and  _213
REMARK   88  A    between atoms: _213  and  _214
REMARK   89  A    between atoms: _213  and  _216
REMARK   90  A    between atoms: _216  and  _217
REMARK   91  A    between atoms: _222  and  _224
REMARK   92  A    between atoms: _224  and  _225
REMARK   93  A    between atoms: _224  and  _227
REMARK   94  A    between atoms: _227  and  _228
REMARK   95  A    between atoms: _231  and  _233
REMARK   96  A    between atoms: _233  and  _234
REMARK   97  A    between atoms: _233  and  _236
REMARK   98  A    between atoms: _236  and  _237
REMARK   99  A    between atoms: _242  and  _243
REMARK  100  A    between atoms: _245  and  _247
REMARK  101  A    between atoms: _247  and  _248
REMARK  102  A    between atoms: _247  and  _250
REMARK  103  A    between atoms: _250  and  _251
REMARK  104  A    between atoms: _251  and  _252
REMARK  105  A    between atoms: _255  and  _257
REMARK  106  A    between atoms: _257  and  _258
REMARK  107  A    between atoms: _257  and  _260
REMARK  108  A    between atoms: _260  and  _261
REMARK  109  A    between atoms: _264  and  _266
REMARK  110  A    between atoms: _266  and  _267
REMARK  111  A    between atoms: _270  and  _272
REMARK  112  A    between atoms: _272  and  _273
REMARK  113  A    between atoms: _272  and  _275
REMARK  114  A    between atoms: _278  and  _280
REMARK  115  A    between atoms: _280  and  _281
REMARK  116  A    between atoms: _280  and  _283
REMARK  117  A    between atoms: _283  and  _284
REMARK  118  A    between atoms: _289  and  _291
REMARK  119  A    between atoms: _291  and  _292
REMARK  120  A    between atoms: _291  and  _294
REMARK  121  A    between atoms: _294  and  _295
REMARK  122  A    between atoms: _295  and  _296
REMARK  123  A    between atoms: _298  and  _300
REMARK  124  A    between atoms: _300  and  _301
REMARK  125  A    between atoms: _303  and  _305
REMARK  126  A    between atoms: _305  and  _306
REMARK  127  A    between atoms: _305  and  _308
REMARK  128  A    between atoms: _308  and  _309
REMARK  129  A    between atoms: _311  and  _313
REMARK  130  A    between atoms: _313  and  _314
REMARK  131  A    between atoms: _317  and  _319
REMARK  132  A    between atoms: _319  and  _320
REMARK  133  A    between atoms: _323  and  _325
REMARK  134  A    between atoms: _325  and  _326
REMARK  135  A    between atoms: _325  and  _328
REMARK  136  A    between atoms: _328  and  _329
REMARK  137  A    between atoms: _332  and  _334
REMARK  138  A    between atoms: _334  and  _335
REMARK  139  A    between atoms: _334  and  _337
REMARK  140  A    between atoms: _337  and  _338
REMARK  141  A    between atoms: _341  and  _343
REMARK  142  A    between atoms: _343  and  _344
REMARK  143  A    between atoms: _343  and  _346
REMARK  144  A    between atoms: _346  and  _347
REMARK  145  A    between atoms: _350  and  _352
REMARK  146  A    between atoms: _352  and  _353
REMARK  147  A    between atoms: _352  and  _355
REMARK  148  A    between atoms: _355  and  _356
REMARK  149  A    between atoms: _362  and  _364
REMARK  150  A    between atoms: _364  and  _365
REMARK  151  A    between atoms: _368  and  _369
REMARK  152  A    between atoms: _374  and  _376
REMARK  153  A    between atoms: _376  and  _377
REMARK  154  A    between atoms: _376  and  _379
REMARK  155  A    between atoms: _379  and  _380
REMARK  156  A    between atoms: _385  and  _386
REMARK  157  A    between atoms: _388  and  _390
REMARK  158  A    between atoms: _390  and  _391
REMARK  159  A    between atoms: _390  and  _393
REMARK  160  A    between atoms: _393  and  _394
REMARK  161  A    between atoms: _394  and  _395
REMARK  162  A    between atoms: _398  and  _400
REMARK  163  A    between atoms: _400  and  _401
REMARK  164  A    between atoms: _400  and  _403
REMARK  165  A    between atoms: _406  and  _408
REMARK  166  A    between atoms: _408  and  _409
REMARK  167  A    between atoms: _408  and  _411
REMARK  168  A    between atoms: _411  and  _412
REMARK  169  A    between atoms: _415  and  _417
REMARK  170  A    between atoms: _417  and  _418
REMARK  171  A    between atoms: _417  and  _420
REMARK  172  A    between atoms: _420  and  _421
REMARK  173  A    between atoms: _421  and  _422
REMARK  174  A    between atoms: _422  and  _423
REMARK  175  A    between atoms: _432  and  _434
REMARK  176  A    between atoms: _434  and  _435
REMARK  177  A    between atoms: _434  and  _437
REMARK  178  A    between atoms: _437  and  _438
REMARK  179  A    between atoms: _443  and  _445
REMARK  180  A    between atoms: _445  and  _446
REMARK  181  A    between atoms: _445  and  _448
REMARK  182  A    between atoms: _448  and  _449
REMARK  183  A    between atoms: _451  and  _453
REMARK  184  A    between atoms: _453  and  _454
REMARK  185  A    between atoms: _453  and  _456
REMARK  186  A    between atoms: _456  and  _457
REMARK  187  A    between atoms: _460  and  _462
REMARK  188  A    between atoms: _462  and  _463
REMARK  189  A    between atoms: _465  and  _467
REMARK  190  A    between atoms: _467  and  _468
REMARK  191  A    between atoms: _467  and  _470
REMARK  192  A    between atoms: _473  and  _475
REMARK  193  A    between atoms: _475  and  _476
REMARK  194  A    between atoms: _475  and  _478
REMARK  195  A    between atoms: _478  and  _479
REMARK  196  A    between atoms: _482  and  _484
REMARK  197  A    between atoms: _484  and  _485
REMARK  198  A    between atoms: _484  and  _487
REMARK  199  A    between atoms: _487  and  _488
REMARK  200  A    between atoms: _492  and  _493
REMARK  201  A    between atoms: _498  and  _500
REMARK  202  A    between atoms: _500  and  _501
REMARK  203  A    between atoms: _503  and  _505
REMARK  204  A    between atoms: _505  and  _506
REMARK  205  A    between atoms: _505  and  _508
REMARK  206  A    between atoms: _511  and  _513
REMARK  207  A    between atoms: _513  and  _514
REMARK  208  A    between atoms: _513  and  _516
REMARK  209  A    between atoms: _516  and  _517
REMARK  210  A    between atoms: _517  and  _518
REMARK  211  A    between atoms: _518  and  _519
REMARK  212  A    between atoms: _529  and  _530
REMARK  213  A    between atoms: _535  and  _537
REMARK  214  A    between atoms: _537  and  _538
REMARK  215  A    between atoms: _537  and  _540
REMARK  216  A    between atoms: _540  and  _541
REMARK  217  A    between atoms: _546  and  _548
REMARK  218  A    between atoms: _548  and  _549
REMARK  219  A    between atoms: _548  and  _551
REMARK  220  A    between atoms: _551  and  _552
REMARK  221  A    between atoms: _554  and  _556
REMARK  222  A    between atoms: _556  and  _557
REMARK  223  A    between atoms: _556  and  _559
REMARK  224  A    between atoms: _559  and  _560
REMARK  225  A    between atoms: _562  and  _564
REMARK  226  A    between atoms: _564  and  _565
REMARK  227  A    between atoms: _564  and  _567
REMARK  228  A    between atoms: _567  and  _568
REMARK  229  A    between atoms: _571  and  _573
REMARK  230  A    between atoms: _573  and  _574
REMARK  231  A    between atoms: _573  and  _576
REMARK  232  A    between atoms: _576  and  _577
REMARK  233  A    between atoms: _583  and  _585
REMARK  234  A    between atoms: _585  and  _586
REMARK  235  A    between atoms: _585  and  _588
REMARK  236  A    between atoms: _588  and  _589
REMARK  237  A    between atoms: _594  and  _596
REMARK  238  A    between atoms: _596  and  _597
REMARK  239  A    between atoms: _599  and  _601
REMARK  240  A    between atoms: _601  and  _602
REMARK  241  A    between atoms: _601  and  _604
REMARK  242  A    between atoms: _604  and  _605
REMARK  243  A    between atoms: _605  and  _606
REMARK  244  A    between atoms: _606  and  _607
REMARK  245  A    between atoms: _616  and  _618
REMARK  246  A    between atoms: _618  and  _619
REMARK  247  A    between atoms: _618  and  _621
REMARK  248  A    between atoms: _621  and  _622
REMARK  249  A    between atoms: _625  and  _627
REMARK  250  A    between atoms: _627  and  _628
REMARK  251  A    between atoms: _627  and  _630
REMARK  252  A    between atoms: _630  and  _631
REMARK                            x       y       z     vdW  Elec       q    Type
REMARK                         _______ _______ _______ _____ _____    ______ ____
ROOT
ATOM      1  O   HOH     1      23.822 -45.185   5.719  0.00  0.00    +0.000 OA
ENDROOT
TORSDOF 0
REMARK  Name = ../refined-set-2016/2wr8/2wr8_pocket.pdb
REMARK  252 active torsions:
REMARK  status: ('A' for Active; 'I' for Inactive)
REMARK    1  A    between atoms: _1  and  _3
REMARK    2  A    between atoms: _3  and  _4
REMARK    3  A    between atoms: _3  and  _6
REMARK    4  A    between atoms: _6  and  _7
REMARK    5  A    between atoms: _13  and  _15
REMARK    6  A    between atoms: _15  and  _16
REMARK    7  A    between atoms: _15  and  _18
REMARK    8  A    between atoms: _18  and  _19
REMARK    9  A    between atoms: _24  and  _25
REMARK   10  A    between atoms: _27  and  _29
REMARK   11  A    between atoms: _29  and  _30
REMARK   12  A    between atoms: _29  and  _32
REMARK   13  A    between atoms: _32  and  _33
REMARK   14  A    between atoms: _36  and  _38
REMARK   15  A    between atoms: _38  and  _39
REMARK   16  A    between atoms: _38  and  _41
REMARK   17  A    between atoms: _41  and  _42
REMARK   18  A    between atoms: _45  and  _47
REMARK   19  A    between atoms: _47  and  _48
REMARK   20  A    between atoms: _47  and  _50
REMARK   21  A    between atoms: _50  and  _51
REMARK   22  A    between atoms: _57  and  _59
REMARK   23  A    between atoms: _59  and  _60
REMARK   24  A    between atoms: _62  and  _64
REMARK   25  A    between atoms: _64  and  _65
REMARK   26  A    between atoms: _64  and  _67
REMARK   27  A    between atoms: _67  and  _68
REMARK   28  A    between atoms: _73  and  _75
REMARK   29  A    between atoms: _75  and  _76
REMARK   30  A    between atoms: _75  and  _78
REMARK   31  A    between atoms: _81  and  _83
REMARK   32  A    between atoms: _83  and  _84
REMARK   33  A    between atoms: _83  and  _86
REMARK   34  A    between atoms: _86  and  _87
REMARK   35  A    between atoms: _90  and  _92
REMARK   36  A    between atoms: _92  and  _93
REMARK   37  A    between atoms: _92  and  _95
REMARK   38  A    between atoms: _95  and  _96
REMARK   39  A    between atoms: _96  and  _97
REMARK   40  A    between atoms: _100  and  _102
REMARK   41  A    between atoms: _102  and  _103
REMARK   42  A    between atoms: _102  and  _105
REMARK   43  A    between atoms: _105  and  _106
REMARK   44  A    between atoms: _109  and  _111
REMARK   45  A    between atoms: _111  and  _112
REMARK   46  A    between atoms: _111  and  _114
REMARK   47  A    between atoms: _114  and  _115
REMARK   48  A    between atoms: _120  and  _121
REMARK   49  A    between atoms: _123  and  _125
REMARK   50  A    between atoms: _125  and  _126
REMARK   51  A    between atoms: _128  and  _130
REMARK   52  A    between atoms: _130  and  _131
REMARK   53  A    between atoms: _130  and  _133
REMARK   54  A    between atoms: _133  and  _134
REMARK   55  A    between atoms: _137  and  _139
REMARK   56  A    between atoms: _139  and  _140
REMARK   57  A    between atoms: _139  and  _142
REMARK   58  A    between atoms: _145  and  _147
REMARK   59  A    between atoms: _147  and  _148
REMARK   60  A    between atoms: _147  and  _150
REMARK   61  A    between atoms: _150  and  _151
REMARK   62  A    between atoms: _151  and  _152
REMARK   63  A    between atoms: _152  and  _153
REMARK   64  A    between atoms: _153  and  _154
REMARK   65  A    between atoms: _158  and  _160
REMARK   66  A    between atoms: _160  and  _161
REMARK   67  A    between atoms: _163  and  _165
REMARK   68  A    between atoms: _165  and  _166
REMARK   69  A    between atoms: _165  and  _168
REMARK   70  A    between atoms: _168  and  _169
REMARK   71  A    between atoms: _169  and  _170
REMARK   72  A    between atoms: _173  and  _175
REMARK   73  A    between atoms: _175  and  _176
REMARK   74  A    between atoms: _175  and  _178
REMARK   75  A    between atoms: _178  and  _179
REMARK   76  A    between atoms: _182  and  _184
REMARK   77  A    between atoms: _184  and  _185
REMARK   78  A    between atoms: _184  and  _187
REMARK   79  A    between atoms: _187  and  _188
REMARK   80  A    between atoms: _192  and  _193
REMARK   81  A    between atoms: _198  and  _200
REMARK   82  A    between atoms: _200  and  _201
REMARK   83  A    between atoms: _203  and  _205
REMARK   84  A    between atoms: _205  and  _206
REMARK   85  A    between atoms: _205  and  _208
REMARK   86  A    between atoms: _208  and  _209
REMARK   87  A    between atoms: _211  and  _213
REMARK   88  A    between atoms: _213  and  _214
REMARK   89  A    between atoms: _213  and  _216
REMARK   90  A    between atoms: _216  and  _217
REMARK   91  A    between atoms: _222  and  _224
REMARK   92  A    between atoms: _224  and  _225
REMARK   93  A    between atoms: _224  and  _227
REMARK   94  A    between atoms: _227  and  _228
REMARK   95  A    between atoms: _231  and  _233
REMARK   96  A    between atoms: _233  and  _234
REMARK   97  A    between atoms: _233  and  _236
REMARK   98  A    between atoms: _236  and  _237
REMARK   99  A    between atoms: _242  and  _243
REMARK  100  A    between atoms: _245  and  _247
REMARK  101  A    between atoms: _247  and  _248
REMARK  102  A    between atoms: _247  and  _250
REMARK  103  A    between atoms: _250  and  _251
REMARK  104  A    between atoms: _251  and  _252
REMARK  105  A    between atoms: _255  and  _257
REMARK  106  A    between atoms: _257  and  _258
REMARK  107  A    between atoms: _257  and  _260
REMARK  108  A    between atoms: _260  and  _261
REMARK  109  A    between atoms: _264  and  _266
REMARK  110  A    between atoms: _266  and  _267
REMARK  111  A    between atoms: _270  and  _272
REMARK  112  A    between atoms: _272  and  _273
REMARK  113  A    between atoms: _272  and  _275
REMARK  114  A    between atoms: _278  and  _280
REMARK  115  A    between atoms: _280  and  _281
REMARK  116  A    between atoms: _280  and  _283
REMARK  117  A    between atoms: _283  and  _284
REMARK  118  A    between atoms: _289  and  _291
REMARK  119  A    between atoms: _291  and  _292
REMARK  120  A    between atoms: _291  and  _294
REMARK  121  A    between atoms: _294  and  _295
REMARK  122  A    between atoms: _295  and  _296
REMARK  123  A    between atoms: _298  and  _300
REMARK  124  A    between atoms: _300  and  _301
REMARK  125  A    between atoms: _303  and  _305
REMARK  126  A    between atoms: _305  and  _306
REMARK  127  A    between atoms: _305  and  _308
REMARK  128  A    between atoms: _308  and  _309
REMARK  129  A    between atoms: _311  and  _313
REMARK  130  A    between atoms: _313  and  _314
REMARK  131  A    between atoms: _317  and  _319
REMARK  132  A    between atoms: _319  and  _320
REMARK  133  A    between atoms: _323  and  _325
REMARK  134  A    between atoms: _325  and  _326
REMARK  135  A    between atoms: _325  and  _328
REMARK  136  A    between atoms: _328  and  _329
REMARK  137  A    between atoms: _332  and  _334
REMARK  138  A    between atoms: _334  and  _335
REMARK  139  A    between atoms: _334  and  _337
REMARK  140  A    between atoms: _337  and  _338
REMARK  141  A    between atoms: _341  and  _343
REMARK  142  A    between atoms: _343  and  _344
REMARK  143  A    between atoms: _343  and  _346
REMARK  144  A    between atoms: _346  and  _347
REMARK  145  A    between atoms: _350  and  _352
REMARK  146  A    between atoms: _352  and  _353
REMARK  147  A    between atoms: _352  and  _355
REMARK  148  A    between atoms: _355  and  _356
REMARK  149  A    between atoms: _362  and  _364
REMARK  150  A    between atoms: _364  and  _365
REMARK  151  A    between atoms: _368  and  _369
REMARK  152  A    between atoms: _374  and  _376
REMARK  153  A    between atoms: _376  and  _377
REMARK  154  A    between atoms: _376  and  _379
REMARK  155  A    between atoms: _379  and  _380
REMARK  156  A    between atoms: _385  and  _386
REMARK  157  A    between atoms: _388  and  _390
REMARK  158  A    between atoms: _390  and  _391
REMARK  159  A    between atoms: _390  and  _393
REMARK  160  A    between atoms: _393  and  _394
REMARK  161  A    between atoms: _394  and  _395
REMARK  162  A    between atoms: _398  and  _400
REMARK  163  A    between atoms: _400  and  _401
REMARK  164  A    between atoms: _400  and  _403
REMARK  165  A    between atoms: _406  and  _408
REMARK  166  A    between atoms: _408  and  _409
REMARK  167  A    between atoms: _408  and  _411
REMARK  168  A    between atoms: _411  and  _412
REMARK  169  A    between atoms: _415  and  _417
REMARK  170  A    between atoms: _417  and  _418
REMARK  171  A    between atoms: _417  and  _420
REMARK  172  A    between atoms: _420  and  _421
REMARK  173  A    between atoms: _421  and  _422
REMARK  174  A    between atoms: _422  and  _423
REMARK  175  A    between atoms: _432  and  _434
REMARK  176  A    between atoms: _434  and  _435
REMARK  177  A    between atoms: _434  and  _437
REMARK  178  A    between atoms: _437  and  _438
REMARK  179  A    between atoms: _443  and  _445
REMARK  180  A    between atoms: _445  and  _446
REMARK  181  A    between atoms: _445  and  _448
REMARK  182  A    between atoms: _448  and  _449
REMARK  183  A    between atoms: _451  and  _453
REMARK  184  A    between atoms: _453  and  _454
REMARK  185  A    between atoms: _453  and  _456
REMARK  186  A    between atoms: _456  and  _457
REMARK  187  A    between atoms: _460  and  _462
REMARK  188  A    between atoms: _462  and  _463
REMARK  189  A    between atoms: _465  and  _467
REMARK  190  A    between atoms: _467  and  _468
REMARK  191  A    between atoms: _467  and  _470
REMARK  192  A    between atoms: _473  and  _475
REMARK  193  A    between atoms: _475  and  _476
REMARK  194  A    between atoms: _475  and  _478
REMARK  195  A    between atoms: _478  and  _479
REMARK  196  A    between atoms: _482  and  _484
REMARK  197  A    between atoms: _484  and  _485
REMARK  198  A    between atoms: _484  and  _487
REMARK  199  A    between atoms: _487  and  _488
REMARK  200  A    between atoms: _492  and  _493
REMARK  201  A    between atoms: _498  and  _500
REMARK  202  A    between atoms: _500  and  _501
REMARK  203  A    between atoms: _503  and  _505
REMARK  204  A    between atoms: _505  and  _506
REMARK  205  A    between atoms: _505  and  _508
REMARK  206  A    between atoms: _511  and  _513
REMARK  207  A    between atoms: _513  and  _514
REMARK  208  A    between atoms: _513  and  _516
REMARK  209  A    between atoms: _516  and  _517
REMARK  210  A    between atoms: _517  and  _518
REMARK  211  A    between atoms: _518  and  _519
REMARK  212  A    between atoms: _529  and  _530
REMARK  213  A    between atoms: _535  and  _537
REMARK  214  A    between atoms: _537  and  _538
REMARK  215  A    between atoms: _537  and  _540
REMARK  216  A    between atoms: _540  and  _541
REMARK  217  A    between atoms: _546  and  _548
REMARK  218  A    between atoms: _548  and  _549
REMARK  219  A    between atoms: _548  and  _551
REMARK  220  A    between atoms: _551  and  _552
REMARK  221  A    between atoms: _554  and  _556
REMARK  222  A    between atoms: _556  and  _557
REMARK  223  A    between atoms: _556  and  _559
REMARK  224  A    between atoms: _559  and  _560
REMARK  225  A    between atoms: _562  and  _564
REMARK  226  A    between atoms: _564  and  _565
REMARK  227  A    between atoms: _564  and  _567
REMARK  228  A    between atoms: _567  and  _568
REMARK  229  A    between atoms: _571  and  _573
REMARK  230  A    between atoms: _573  and  _574
REMARK  231  A    between atoms: _573  and  _576
REMARK  232  A    between atoms: _576  and  _577
REMARK  233  A    between atoms: _583  and  _585
REMARK  234  A    between atoms: _585  and  _586
REMARK  235  A    between atoms: _585  and  _588
REMARK  236  A    between atoms: _588  and  _589
REMARK  237  A    between atoms: _594  and  _596
REMARK  238  A    between atoms: _596  and  _597
REMARK  239  A    between atoms: _599  and  _601
REMARK  240  A    between atoms: _601  and  _602
REMARK  241  A    between atoms: _601  and  _604
REMARK  242  A    between atoms: _604  and  _605
REMARK  243  A    between atoms: _605  and  _606
REMARK  244  A    between atoms: _606  and  _607
REMARK  245  A    between atoms: _616  and  _618
REMARK  246  A    between atoms: _618  and  _619
REMARK  247  A    between atoms: _618  and  _621
REMARK  248  A    between atoms: _621  and  _622
REMARK  249  A    between atoms: _625  and  _627
REMARK  250  A    between atoms: _627  and  _628
REMARK  251  A    between atoms: _627  and  _630
REMARK  252  A    between atoms: _630  and  _631
REMARK                            x       y       z     vdW  Elec       q    Type
REMARK                         _______ _______ _______ _____ _____    ______ ____
ROOT
ATOM      1  O   HOH     1      25.205 -44.138   2.604  0.00  0.00    +0.000 OA
ENDROOT
TORSDOF 0
REMARK  Name = ../refined-set-2016/2wr8/2wr8_pocket.pdb
REMARK  252 active torsions:
REMARK  status: ('A' for Active; 'I' for Inactive)
REMARK    1  A    between atoms: _1  and  _3
REMARK    2  A    between atoms: _3  and  _4
REMARK    3  A    between atoms: _3  and  _6
REMARK    4  A    between atoms: _6  and  _7
REMARK    5  A    between atoms: _13  and  _15
REMARK    6  A    between atoms: _15  and  _16
REMARK    7  A    between atoms: _15  and  _18
REMARK    8  A    between atoms: _18  and  _19
REMARK    9  A    between atoms: _24  and  _25
REMARK   10  A    between atoms: _27  and  _29
REMARK   11  A    between atoms: _29  and  _30
REMARK   12  A    between atoms: _29  and  _32
REMARK   13  A    between atoms: _32  and  _33
REMARK   14  A    between atoms: _36  and  _38
REMARK   15  A    between atoms: _38  and  _39
REMARK   16  A    between atoms: _38  and  _41
REMARK   17  A    between atoms: _41  and  _42
REMARK   18  A    between atoms: _45  and  _47
REMARK   19  A    between atoms: _47  and  _48
REMARK   20  A    between atoms: _47  and  _50
REMARK   21  A    between atoms: _50  and  _51
REMARK   22  A    between atoms: _57  and  _59
REMARK   23  A    between atoms: _59  and  _60
REMARK   24  A    between atoms: _62  and  _64
REMARK   25  A    between atoms: _64  and  _65
REMARK   26  A    between atoms: _64  and  _67
REMARK   27  A    between atoms: _67  and  _68
REMARK   28  A    between atoms: _73  and  _75
REMARK   29  A    between atoms: _75  and  _76
REMARK   30  A    between atoms: _75  and  _78
REMARK   31  A    between atoms: _81  and  _83
REMARK   32  A    between atoms: _83  and  _84
REMARK   33  A    between atoms: _83  and  _86
REMARK   34  A    between atoms: _86  and  _87
REMARK   35  A    between atoms: _90  and  _92
REMARK   36  A    between atoms: _92  and  _93
REMARK   37  A    between atoms: _92  and  _95
REMARK   38  A    between atoms: _95  and  _96
REMARK   39  A    between atoms: _96  and  _97
REMARK   40  A    between atoms: _100  and  _102
REMARK   41  A    between atoms: _102  and  _103
REMARK   42  A    between atoms: _102  and  _105
REMARK   43  A    between atoms: _105  and  _106
REMARK   44  A    between atoms: _109  and  _111
REMARK   45  A    between atoms: _111  and  _112
REMARK   46  A    between atoms: _111  and  _114
REMARK   47  A    between atoms: _114  and  _115
REMARK   48  A    between atoms: _120  and  _121
REMARK   49  A    between atoms: _123  and  _125
REMARK   50  A    between atoms: _125  and  _126
REMARK   51  A    between atoms: _128  and  _130
REMARK   52  A    between atoms: _130  and  _131
REMARK   53  A    between atoms: _130  and  _133
REMARK   54  A    between atoms: _133  and  _134
REMARK   55  A    between atoms: _137  and  _139
REMARK   56  A    between atoms: _139  and  _140
REMARK   57  A    between atoms: _139  and  _142
REMARK   58  A    between atoms: _145  and  _147
REMARK   59  A    between atoms: _147  and  _148
REMARK   60  A    between atoms: _147  and  _150
REMARK   61  A    between atoms: _150  and  _151
REMARK   62  A    between atoms: _151  and  _152
REMARK   63  A    between atoms: _152  and  _153
REMARK   64  A    between atoms: _153  and  _154
REMARK   65  A    between atoms: _158  and  _160
REMARK   66  A    between atoms: _160  and  _161
REMARK   67  A    between atoms: _163  and  _165
REMARK   68  A    between atoms: _165  and  _166
REMARK   69  A    between atoms: _165  and  _168
REMARK   70  A    between atoms: _168  and  _169
REMARK   71  A    between atoms: _169  and  _170
REMARK   72  A    between atoms: _173  and  _175
REMARK   73  A    between atoms: _175  and  _176
REMARK   74  A    between atoms: _175  and  _178
REMARK   75  A    between atoms: _178  and  _179
REMARK   76  A    between atoms: _182  and  _184
REMARK   77  A    between atoms: _184  and  _185
REMARK   78  A    between atoms: _184  and  _187
REMARK   79  A    between atoms: _187  and  _188
REMARK   80  A    between atoms: _192  and  _193
REMARK   81  A    between atoms: _198  and  _200
REMARK   82  A    between atoms: _200  and  _201
REMARK   83  A    between atoms: _203  and  _205
REMARK   84  A    between atoms: _205  and  _206
REMARK   85  A    between atoms: _205  and  _208
REMARK   86  A    between atoms: _208  and  _209
REMARK   87  A    between atoms: _211  and  _213
REMARK   88  A    between atoms: _213  and  _214
REMARK   89  A    between atoms: _213  and  _216
REMARK   90  A    between atoms: _216  and  _217
REMARK   91  A    between atoms: _222  and  _224
REMARK   92  A    between atoms: _224  and  _225
REMARK   93  A    between atoms: _224  and  _227
REMARK   94  A    between atoms: _227  and  _228
REMARK   95  A    between atoms: _231  and  _233
REMARK   96  A    between atoms: _233  and  _234
REMARK   97  A    between atoms: _233  and  _236
REMARK   98  A    between atoms: _236  and  _237
REMARK   99  A    between atoms: _242  and  _243
REMARK  100  A    between atoms: _245  and  _247
REMARK  101  A    between atoms: _247  and  _248
REMARK  102  A    between atoms: _247  and  _250
REMARK  103  A    between atoms: _250  and  _251
REMARK  104  A    between atoms: _251  and  _252
REMARK  105  A    between atoms: _255  and  _257
REMARK  106  A    between atoms: _257  and  _258
REMARK  107  A    between atoms: _257  and  _260
REMARK  108  A    between atoms: _260  and  _261
REMARK  109  A    between atoms: _264  and  _266
REMARK  110  A    between atoms: _266  and  _267
REMARK  111  A    between atoms: _270  and  _272
REMARK  112  A    between atoms: _272  and  _273
REMARK  113  A    between atoms: _272  and  _275
REMARK  114  A    between atoms: _278  and  _280
REMARK  115  A    between atoms: _280  and  _281
REMARK  116  A    between atoms: _280  and  _283
REMARK  117  A    between atoms: _283  and  _284
REMARK  118  A    between atoms: _289  and  _291
REMARK  119  A    between atoms: _291  and  _292
REMARK  120  A    between atoms: _291  and  _294
REMARK  121  A    between atoms: _294  and  _295
REMARK  122  A    between atoms: _295  and  _296
REMARK  123  A    between atoms: _298  and  _300
REMARK  124  A    between atoms: _300  and  _301
REMARK  125  A    between atoms: _303  and  _305
REMARK  126  A    between atoms: _305  and  _306
REMARK  127  A    between atoms: _305  and  _308
REMARK  128  A    between atoms: _308  and  _309
REMARK  129  A    between atoms: _311  and  _313
REMARK  130  A    between atoms: _313  and  _314
REMARK  131  A    between atoms: _317  and  _319
REMARK  132  A    between atoms: _319  and  _320
REMARK  133  A    between atoms: _323  and  _325
REMARK  134  A    between atoms: _325  and  _326
REMARK  135  A    between atoms: _325  and  _328
REMARK  136  A    between atoms: _328  and  _329
REMARK  137  A    between atoms: _332  and  _334
REMARK  138  A    between atoms: _334  and  _335
REMARK  139  A    between atoms: _334  and  _337
REMARK  140  A    between atoms: _337  and  _338
REMARK  141  A    between atoms: _341  and  _343
REMARK  142  A    between atoms: _343  and  _344
REMARK  143  A    between atoms: _343  and  _346
REMARK  144  A    between atoms: _346  and  _347
REMARK  145  A    between atoms: _350  and  _352
REMARK  146  A    between atoms: _352  and  _353
REMARK  147  A    between atoms: _352  and  _355
REMARK  148  A    between atoms: _355  and  _356
REMARK  149  A    between atoms: _362  and  _364
REMARK  150  A    between atoms: _364  and  _365
REMARK  151  A    between atoms: _368  and  _369
REMARK  152  A    between atoms: _374  and  _376
REMARK  153  A    between atoms: _376  and  _377
REMARK  154  A    between atoms: _376  and  _379
REMARK  155  A    between atoms: _379  and  _380
REMARK  156  A    between atoms: _385  and  _386
REMARK  157  A    between atoms: _388  and  _390
REMARK  158  A    between atoms: _390  and  _391
REMARK  159  A    between atoms: _390  and  _393
REMARK  160  A    between atoms: _393  and  _394
REMARK  161  A    between atoms: _394  and  _395
REMARK  162  A    between atoms: _398  and  _400
REMARK  163  A    between atoms: _400  and  _401
REMARK  164  A    between atoms: _400  and  _403
REMARK  165  A    between atoms: _406  and  _408
REMARK  166  A    between atoms: _408  and  _409
REMARK  167  A    between atoms: _408  and  _411
REMARK  168  A    between atoms: _411  and  _412
REMARK  169  A    between atoms: _415  and  _417
REMARK  170  A    between atoms: _417  and  _418
REMARK  171  A    between atoms: _417  and  _420
REMARK  172  A    between atoms: _420  and  _421
REMARK  173  A    between atoms: _421  and  _422
REMARK  174  A    between atoms: _422  and  _423
REMARK  175  A    between atoms: _432  and  _434
REMARK  176  A    between atoms: _434  and  _435
REMARK  177  A    between atoms: _434  and  _437
REMARK  178  A    between atoms: _437  and  _438
REMARK  179  A    between atoms: _443  and  _445
REMARK  180  A    between atoms: _445  and  _446
REMARK  181  A    between atoms: _445  and  _448
REMARK  182  A    between atoms: _448  and  _449
REMARK  183  A    between atoms: _451  and  _453
REMARK  184  A    between atoms: _453  and  _454
REMARK  185  A    between atoms: _453  and  _456
REMARK  186  A    between atoms: _456  and  _457
REMARK  187  A    between atoms: _460  and  _462
REMARK  188  A    between atoms: _462  and  _463
REMARK  189  A    between atoms: _465  and  _467
REMARK  190  A    between atoms: _467  and  _468
REMARK  191  A    between atoms: _467  and  _470
REMARK  192  A    between atoms: _473  and  _475
REMARK  193  A    between atoms: _475  and  _476
REMARK  194  A    between atoms: _475  and  _478
REMARK  195  A    between atoms: _478  and  _479
REMARK  196  A    between atoms: _482  and  _484
REMARK  197  A    between atoms: _484  and  _485
REMARK  198  A    between atoms: _484  and  _487
REMARK  199  A    between atoms: _487  and  _488
REMARK  200  A    between atoms: _492  and  _493
REMARK  201  A    between atoms: _498  and  _500
REMARK  202  A    between atoms: _500  and  _501
REMARK  203  A    between atoms: _503  and  _505
REMARK  204  A    between atoms: _505  and  _506
REMARK  205  A    between atoms: _505  and  _508
REMARK  206  A    between atoms: _511  and  _513
REMARK  207  A    between atoms: _513  and  _514
REMARK  208  A    between atoms: _513  and  _516
REMARK  209  A    between atoms: _516  and  _517
REMARK  210  A    between atoms: _517  and  _518
REMARK  211  A    between atoms: _518  and  _519
REMARK  212  A    between atoms: _529  and  _530
REMARK  213  A    between atoms: _535  and  _537
REMARK  214  A    between atoms: _537  and  _538
REMARK  215  A    between atoms: _537  and  _540
REMARK  216  A    between atoms: _540  and  _541
REMARK  217  A    between atoms: _546  and  _548
REMARK  218  A    between atoms: _548  and  _549
REMARK  219  A    between atoms: _548  and  _551
REMARK  220  A    between atoms: _551  and  _552
REMARK  221  A    between atoms: _554  and  _556
REMARK  222  A    between atoms: _556  and  _557
REMARK  223  A    between atoms: _556  and  _559
REMARK  224  A    between atoms: _559  and  _560
REMARK  225  A    between atoms: _562  and  _564
REMARK  226  A    between atoms: _564  and  _565
REMARK  227  A    between atoms: _564  and  _567
REMARK  228  A    between atoms: _567  and  _568
REMARK  229  A    between atoms: _571  and  _573
REMARK  230  A    between atoms: _573  and  _574
REMARK  231  A    between atoms: _573  and  _576
REMARK  232  A    between atoms: _576  and  _577
REMARK  233  A    between atoms: _583  and  _585
REMARK  234  A    between atoms: _585  and  _586
REMARK  235  A    between atoms: _585  and  _588
REMARK  236  A    between atoms: _588  and  _589
REMARK  237  A    between atoms: _594  and  _596
REMARK  238  A    between atoms: _596  and  _597
REMARK  239  A    between atoms: _599  and  _601
REMARK  240  A    between atoms: _601  and  _602
REMARK  241  A    between atoms: _601  and  _604
REMARK  242  A    between atoms: _604  and  _605
REMARK  243  A    between atoms: _605  and  _606
REMARK  244  A    between atoms: _606  and  _607
REMARK  245  A    between atoms: _616  and  _618
REMARK  246  A    between atoms: _618  and  _619
REMARK  247  A    between atoms: _618  and  _621
REMARK  248  A    between atoms: _621  and  _622
REMARK  249  A    between atoms: _625  and  _627
REMARK  250  A    between atoms: _627  and  _628
REMARK  251  A    between atoms: _627  and  _630
REMARK  252  A    between atoms: _630  and  _631
REMARK                            x       y       z     vdW  Elec       q    Type
REMARK                         _______ _______ _______ _____ _____    ______ ____
ROOT
ATOM      1  O   HOH     1      25.133 -39.909   2.916  0.00  0.00    +0.000 OA
ENDROOT
TORSDOF 0
REMARK  Name = ../refined-set-2016/2wr8/2wr8_pocket.pdb
REMARK  252 active torsions:
REMARK  status: ('A' for Active; 'I' for Inactive)
REMARK    1  A    between atoms: _1  and  _3
REMARK    2  A    between atoms: _3  and  _4
REMARK    3  A    between atoms: _3  and  _6
REMARK    4  A    between atoms: _6  and  _7
REMARK    5  A    between atoms: _13  and  _15
REMARK    6  A    between atoms: _15  and  _16
REMARK    7  A    between atoms: _15  and  _18
REMARK    8  A    between atoms: _18  and  _19
REMARK    9  A    between atoms: _24  and  _25
REMARK   10  A    between atoms: _27  and  _29
REMARK   11  A    between atoms: _29  and  _30
REMARK   12  A    between atoms: _29  and  _32
REMARK   13  A    between atoms: _32  and  _33
REMARK   14  A    between atoms: _36  and  _38
REMARK   15  A    between atoms: _38  and  _39
REMARK   16  A    between atoms: _38  and  _41
REMARK   17  A    between atoms: _41  and  _42
REMARK   18  A    between atoms: _45  and  _47
REMARK   19  A    between atoms: _47  and  _48
REMARK   20  A    between atoms: _47  and  _50
REMARK   21  A    between atoms: _50  and  _51
REMARK   22  A    between atoms: _57  and  _59
REMARK   23  A    between atoms: _59  and  _60
REMARK   24  A    between atoms: _62  and  _64
REMARK   25  A    between atoms: _64  and  _65
REMARK   26  A    between atoms: _64  and  _67
REMARK   27  A    between atoms: _67  and  _68
REMARK   28  A    between atoms: _73  and  _75
REMARK   29  A    between atoms: _75  and  _76
REMARK   30  A    between atoms: _75  and  _78
REMARK   31  A    between atoms: _81  and  _83
REMARK   32  A    between atoms: _83  and  _84
REMARK   33  A    between atoms: _83  and  _86
REMARK   34  A    between atoms: _86  and  _87
REMARK   35  A    between atoms: _90  and  _92
REMARK   36  A    between atoms: _92  and  _93
REMARK   37  A    between atoms: _92  and  _95
REMARK   38  A    between atoms: _95  and  _96
REMARK   39  A    between atoms: _96  and  _97
REMARK   40  A    between atoms: _100  and  _102
REMARK   41  A    between atoms: _102  and  _103
REMARK   42  A    between atoms: _102  and  _105
REMARK   43  A    between atoms: _105  and  _106
REMARK   44  A    between atoms: _109  and  _111
REMARK   45  A    between atoms: _111  and  _112
REMARK   46  A    between atoms: _111  and  _114
REMARK   47  A    between atoms: _114  and  _115
REMARK   48  A    between atoms: _120  and  _121
REMARK   49  A    between atoms: _123  and  _125
REMARK   50  A    between atoms: _125  and  _126
REMARK   51  A    between atoms: _128  and  _130
REMARK   52  A    between atoms: _130  and  _131
REMARK   53  A    between atoms: _130  and  _133
REMARK   54  A    between atoms: _133  and  _134
REMARK   55  A    between atoms: _137  and  _139
REMARK   56  A    between atoms: _139  and  _140
REMARK   57  A    between atoms: _139  and  _142
REMARK   58  A    between atoms: _145  and  _147
REMARK   59  A    between atoms: _147  and  _148
REMARK   60  A    between atoms: _147  and  _150
REMARK   61  A    between atoms: _150  and  _151
REMARK   62  A    between atoms: _151  and  _152
REMARK   63  A    between atoms: _152  and  _153
REMARK   64  A    between atoms: _153  and  _154
REMARK   65  A    between atoms: _158  and  _160
REMARK   66  A    between atoms: _160  and  _161
REMARK   67  A    between atoms: _163  and  _165
REMARK   68  A    between atoms: _165  and  _166
REMARK   69  A    between atoms: _165  and  _168
REMARK   70  A    between atoms: _168  and  _169
REMARK   71  A    between atoms: _169  and  _170
REMARK   72  A    between atoms: _173  and  _175
REMARK   73  A    between atoms: _175  and  _176
REMARK   74  A    between atoms: _175  and  _178
REMARK   75  A    between atoms: _178  and  _179
REMARK   76  A    between atoms: _182  and  _184
REMARK   77  A    between atoms: _184  and  _185
REMARK   78  A    between atoms: _184  and  _187
REMARK   79  A    between atoms: _187  and  _188
REMARK   80  A    between atoms: _192  and  _193
REMARK   81  A    between atoms: _198  and  _200
REMARK   82  A    between atoms: _200  and  _201
REMARK   83  A    between atoms: _203  and  _205
REMARK   84  A    between atoms: _205  and  _206
REMARK   85  A    between atoms: _205  and  _208
REMARK   86  A    between atoms: _208  and  _209
REMARK   87  A    between atoms: _211  and  _213
REMARK   88  A    between atoms: _213  and  _214
REMARK   89  A    between atoms: _213  and  _216
REMARK   90  A    between atoms: _216  and  _217
REMARK   91  A    between atoms: _222  and  _224
REMARK   92  A    between atoms: _224  and  _225
REMARK   93  A    between atoms: _224  and  _227
REMARK   94  A    between atoms: _227  and  _228
REMARK   95  A    between atoms: _231  and  _233
REMARK   96  A    between atoms: _233  and  _234
REMARK   97  A    between atoms: _233  and  _236
REMARK   98  A    between atoms: _236  and  _237
REMARK   99  A    between atoms: _242  and  _243
REMARK  100  A    between atoms: _245  and  _247
REMARK  101  A    between atoms: _247  and  _248
REMARK  102  A    between atoms: _247  and  _250
REMARK  103  A    between atoms: _250  and  _251
REMARK  104  A    between atoms: _251  and  _252
REMARK  105  A    between atoms: _255  and  _257
REMARK  106  A    between atoms: _257  and  _258
REMARK  107  A    between atoms: _257  and  _260
REMARK  108  A    between atoms: _260  and  _261
REMARK  109  A    between atoms: _264  and  _266
REMARK  110  A    between atoms: _266  and  _267
REMARK  111  A    between atoms: _270  and  _272
REMARK  112  A    between atoms: _272  and  _273
REMARK  113  A    between atoms: _272  and  _275
REMARK  114  A    between atoms: _278  and  _280
REMARK  115  A    between atoms: _280  and  _281
REMARK  116  A    between atoms: _280  and  _283
REMARK  117  A    between atoms: _283  and  _284
REMARK  118  A    between atoms: _289  and  _291
REMARK  119  A    between atoms: _291  and  _292
REMARK  120  A    between atoms: _291  and  _294
REMARK  121  A    between atoms: _294  and  _295
REMARK  122  A    between atoms: _295  and  _296
REMARK  123  A    between atoms: _298  and  _300
REMARK  124  A    between atoms: _300  and  _301
REMARK  125  A    between atoms: _303  and  _305
REMARK  126  A    between atoms: _305  and  _306
REMARK  127  A    between atoms: _305  and  _308
REMARK  128  A    between atoms: _308  and  _309
REMARK  129  A    between atoms: _311  and  _313
REMARK  130  A    between atoms: _313  and  _314
REMARK  131  A    between atoms: _317  and  _319
REMARK  132  A    between atoms: _319  and  _320
REMARK  133  A    between atoms: _323  and  _325
REMARK  134  A    between atoms: _325  and  _326
REMARK  135  A    between atoms: _325  and  _328
REMARK  136  A    between atoms: _328  and  _329
REMARK  137  A    between atoms: _332  and  _334
REMARK  138  A    between atoms: _334  and  _335
REMARK  139  A    between atoms: _334  and  _337
REMARK  140  A    between atoms: _337  and  _338
REMARK  141  A    between atoms: _341  and  _343
REMARK  142  A    between atoms: _343  and  _344
REMARK  143  A    between atoms: _343  and  _346
REMARK  144  A    between atoms: _346  and  _347
REMARK  145  A    between atoms: _350  and  _352
REMARK  146  A    between atoms: _352  and  _353
REMARK  147  A    between atoms: _352  and  _355
REMARK  148  A    between atoms: _355  and  _356
REMARK  149  A    between atoms: _362  and  _364
REMARK  150  A    between atoms: _364  and  _365
REMARK  151  A    between atoms: _368  and  _369
REMARK  152  A    between atoms: _374  and  _376
REMARK  153  A    between atoms: _376  and  _377
REMARK  154  A    between atoms: _376  and  _379
REMARK  155  A    between atoms: _379  and  _380
REMARK  156  A    between atoms: _385  and  _386
REMARK  157  A    between atoms: _388  and  _390
REMARK  158  A    between atoms: _390  and  _391
REMARK  159  A    between atoms: _390  and  _393
REMARK  160  A    between atoms: _393  and  _394
REMARK  161  A    between atoms: _394  and  _395
REMARK  162  A    between atoms: _398  and  _400
REMARK  163  A    between atoms: _400  and  _401
REMARK  164  A    between atoms: _400  and  _403
REMARK  165  A    between atoms: _406  and  _408
REMARK  166  A    between atoms: _408  and  _409
REMARK  167  A    between atoms: _408  and  _411
REMARK  168  A    between atoms: _411  and  _412
REMARK  169  A    between atoms: _415  and  _417
REMARK  170  A    between atoms: _417  and  _418
REMARK  171  A    between atoms: _417  and  _420
REMARK  172  A    between atoms: _420  and  _421
REMARK  173  A    between atoms: _421  and  _422
REMARK  174  A    between atoms: _422  and  _423
REMARK  175  A    between atoms: _432  and  _434
REMARK  176  A    between atoms: _434  and  _435
REMARK  177  A    between atoms: _434  and  _437
REMARK  178  A    between atoms: _437  and  _438
REMARK  179  A    between atoms: _443  and  _445
REMARK  180  A    between atoms: _445  and  _446
REMARK  181  A    between atoms: _445  and  _448
REMARK  182  A    between atoms: _448  and  _449
REMARK  183  A    between atoms: _451  and  _453
REMARK  184  A    between atoms: _453  and  _454
REMARK  185  A    between atoms: _453  and  _456
REMARK  186  A    between atoms: _456  and  _457
REMARK  187  A    between atoms: _460  and  _462
REMARK  188  A    between atoms: _462  and  _463
REMARK  189  A    between atoms: _465  and  _467
REMARK  190  A    between atoms: _467  and  _468
REMARK  191  A    between atoms: _467  and  _470
REMARK  192  A    between atoms: _473  and  _475
REMARK  193  A    between atoms: _475  and  _476
REMARK  194  A    between atoms: _475  and  _478
REMARK  195  A    between atoms: _478  and  _479
REMARK  196  A    between atoms: _482  and  _484
REMARK  197  A    between atoms: _484  and  _485
REMARK  198  A    between atoms: _484  and  _487
REMARK  199  A    between atoms: _487  and  _488
REMARK  200  A    between atoms: _492  and  _493
REMARK  201  A    between atoms: _498  and  _500
REMARK  202  A    between atoms: _500  and  _501
REMARK  203  A    between atoms: _503  and  _505
REMARK  204  A    between atoms: _505  and  _506
REMARK  205  A    between atoms: _505  and  _508
REMARK  206  A    between atoms: _511  and  _513
REMARK  207  A    between atoms: _513  and  _514
REMARK  208  A    between atoms: _513  and  _516
REMARK  209  A    between atoms: _516  and  _517
REMARK  210  A    between atoms: _517  and  _518
REMARK  211  A    between atoms: _518  and  _519
REMARK  212  A    between atoms: _529  and  _530
REMARK  213  A    between atoms: _535  and  _537
REMARK  214  A    between atoms: _537  and  _538
REMARK  215  A    between atoms: _537  and  _540
REMARK  216  A    between atoms: _540  and  _541
REMARK  217  A    between atoms: _546  and  _548
REMARK  218  A    between atoms: _548  and  _549
REMARK  219  A    between atoms: _548  and  _551
REMARK  220  A    between atoms: _551  and  _552
REMARK  221  A    between atoms: _554  and  _556
REMARK  222  A    between atoms: _556  and  _557
REMARK  223  A    between atoms: _556  and  _559
REMARK  224  A    between atoms: _559  and  _560
REMARK  225  A    between atoms: _562  and  _564
REMARK  226  A    between atoms: _564  and  _565
REMARK  227  A    between atoms: _564  and  _567
REMARK  228  A    between atoms: _567  and  _568
REMARK  229  A    between atoms: _571  and  _573
REMARK  230  A    between atoms: _573  and  _574
REMARK  231  A    between atoms: _573  and  _576
REMARK  232  A    between atoms: _576  and  _577
REMARK  233  A    between atoms: _583  and  _585
REMARK  234  A    between atoms: _585  and  _586
REMARK  235  A    between atoms: _585  and  _588
REMARK  236  A    between atoms: _588  and  _589
REMARK  237  A    between atoms: _594  and  _596
REMARK  238  A    between atoms: _596  and  _597
REMARK  239  A    between atoms: _599  and  _601
REMARK  240  A    between atoms: _601  and  _602
REMARK  241  A    between atoms: _601  and  _604
REMARK  242  A    between atoms: _604  and  _605
REMARK  243  A    between atoms: _605  and  _606
REMARK  244  A    between atoms: _606  and  _607
REMARK  245  A    between atoms: _616  and  _618
REMARK  246  A    between atoms: _618  and  _619
REMARK  247  A    between atoms: _618  and  _621
REMARK  248  A    between atoms: _621  and  _622
REMARK  249  A    between atoms: _625  and  _627
REMARK  250  A    between atoms: _627  and  _628
REMARK  251  A    between atoms: _627  and  _630
REMARK  252  A    between atoms: _630  and  _631
REMARK                            x       y       z     vdW  Elec       q    Type
REMARK                         _______ _______ _______ _____ _____    ______ ____
ROOT
ATOM      1  O   HOH     1      17.280 -52.971  11.688  0.00  0.00    +0.000 OA
ENDROOT
TORSDOF 0
REMARK  Name = ../refined-set-2016/2wr8/2wr8_pocket.pdb
REMARK  252 active torsions:
REMARK  status: ('A' for Active; 'I' for Inactive)
REMARK    1  A    between atoms: _1  and  _3
REMARK    2  A    between atoms: _3  and  _4
REMARK    3  A    between atoms: _3  and  _6
REMARK    4  A    between atoms: _6  and  _7
REMARK    5  A    between atoms: _13  and  _15
REMARK    6  A    between atoms: _15  and  _16
REMARK    7  A    between atoms: _15  and  _18
REMARK    8  A    between atoms: _18  and  _19
REMARK    9  A    between atoms: _24  and  _25
REMARK   10  A    between atoms: _27  and  _29
REMARK   11  A    between atoms: _29  and  _30
REMARK   12  A    between atoms: _29  and  _32
REMARK   13  A    between atoms: _32  and  _33
REMARK   14  A    between atoms: _36  and  _38
REMARK   15  A    between atoms: _38  and  _39
REMARK   16  A    between atoms: _38  and  _41
REMARK   17  A    between atoms: _41  and  _42
REMARK   18  A    between atoms: _45  and  _47
REMARK   19  A    between atoms: _47  and  _48
REMARK   20  A    between atoms: _47  and  _50
REMARK   21  A    between atoms: _50  and  _51
REMARK   22  A    between atoms: _57  and  _59
REMARK   23  A    between atoms: _59  and  _60
REMARK   24  A    between atoms: _62  and  _64
REMARK   25  A    between atoms: _64  and  _65
REMARK   26  A    between atoms: _64  and  _67
REMARK   27  A    between atoms: _67  and  _68
REMARK   28  A    between atoms: _73  and  _75
REMARK   29  A    between atoms: _75  and  _76
REMARK   30  A    between atoms: _75  and  _78
REMARK   31  A    between atoms: _81  and  _83
REMARK   32  A    between atoms: _83  and  _84
REMARK   33  A    between atoms: _83  and  _86
REMARK   34  A    between atoms: _86  and  _87
REMARK   35  A    between atoms: _90  and  _92
REMARK   36  A    between atoms: _92  and  _93
REMARK   37  A    between atoms: _92  and  _95
REMARK   38  A    between atoms: _95  and  _96
REMARK   39  A    between atoms: _96  and  _97
REMARK   40  A    between atoms: _100  and  _102
REMARK   41  A    between atoms: _102  and  _103
REMARK   42  A    between atoms: _102  and  _105
REMARK   43  A    between atoms: _105  and  _106
REMARK   44  A    between atoms: _109  and  _111
REMARK   45  A    between atoms: _111  and  _112
REMARK   46  A    between atoms: _111  and  _114
REMARK   47  A    between atoms: _114  and  _115
REMARK   48  A    between atoms: _120  and  _121
REMARK   49  A    between atoms: _123  and  _125
REMARK   50  A    between atoms: _125  and  _126
REMARK   51  A    between atoms: _128  and  _130
REMARK   52  A    between atoms: _130  and  _131
REMARK   53  A    between atoms: _130  and  _133
REMARK   54  A    between atoms: _133  and  _134
REMARK   55  A    between atoms: _137  and  _139
REMARK   56  A    between atoms: _139  and  _140
REMARK   57  A    between atoms: _139  and  _142
REMARK   58  A    between atoms: _145  and  _147
REMARK   59  A    between atoms: _147  and  _148
REMARK   60  A    between atoms: _147  and  _150
REMARK   61  A    between atoms: _150  and  _151
REMARK   62  A    between atoms: _151  and  _152
REMARK   63  A    between atoms: _152  and  _153
REMARK   64  A    between atoms: _153  and  _154
REMARK   65  A    between atoms: _158  and  _160
REMARK   66  A    between atoms: _160  and  _161
REMARK   67  A    between atoms: _163  and  _165
REMARK   68  A    between atoms: _165  and  _166
REMARK   69  A    between atoms: _165  and  _168
REMARK   70  A    between atoms: _168  and  _169
REMARK   71  A    between atoms: _169  and  _170
REMARK   72  A    between atoms: _173  and  _175
REMARK   73  A    between atoms: _175  and  _176
REMARK   74  A    between atoms: _175  and  _178
REMARK   75  A    between atoms: _178  and  _179
REMARK   76  A    between atoms: _182  and  _184
REMARK   77  A    between atoms: _184  and  _185
REMARK   78  A    between atoms: _184  and  _187
REMARK   79  A    between atoms: _187  and  _188
REMARK   80  A    between atoms: _192  and  _193
REMARK   81  A    between atoms: _198  and  _200
REMARK   82  A    between atoms: _200  and  _201
REMARK   83  A    between atoms: _203  and  _205
REMARK   84  A    between atoms: _205  and  _206
REMARK   85  A    between atoms: _205  and  _208
REMARK   86  A    between atoms: _208  and  _209
REMARK   87  A    between atoms: _211  and  _213
REMARK   88  A    between atoms: _213  and  _214
REMARK   89  A    between atoms: _213  and  _216
REMARK   90  A    between atoms: _216  and  _217
REMARK   91  A    between atoms: _222  and  _224
REMARK   92  A    between atoms: _224  and  _225
REMARK   93  A    between atoms: _224  and  _227
REMARK   94  A    between atoms: _227  and  _228
REMARK   95  A    between atoms: _231  and  _233
REMARK   96  A    between atoms: _233  and  _234
REMARK   97  A    between atoms: _233  and  _236
REMARK   98  A    between atoms: _236  and  _237
REMARK   99  A    between atoms: _242  and  _243
REMARK  100  A    between atoms: _245  and  _247
REMARK  101  A    between atoms: _247  and  _248
REMARK  102  A    between atoms: _247  and  _250
REMARK  103  A    between atoms: _250  and  _251
REMARK  104  A    between atoms: _251  and  _252
REMARK  105  A    between atoms: _255  and  _257
REMARK  106  A    between atoms: _257  and  _258
REMARK  107  A    between atoms: _257  and  _260
REMARK  108  A    between atoms: _260  and  _261
REMARK  109  A    between atoms: _264  and  _266
REMARK  110  A    between atoms: _266  and  _267
REMARK  111  A    between atoms: _270  and  _272
REMARK  112  A    between atoms: _272  and  _273
REMARK  113  A    between atoms: _272  and  _275
REMARK  114  A    between atoms: _278  and  _280
REMARK  115  A    between atoms: _280  and  _281
REMARK  116  A    between atoms: _280  and  _283
REMARK  117  A    between atoms: _283  and  _284
REMARK  118  A    between atoms: _289  and  _291
REMARK  119  A    between atoms: _291  and  _292
REMARK  120  A    between atoms: _291  and  _294
REMARK  121  A    between atoms: _294  and  _295
REMARK  122  A    between atoms: _295  and  _296
REMARK  123  A    between atoms: _298  and  _300
REMARK  124  A    between atoms: _300  and  _301
REMARK  125  A    between atoms: _303  and  _305
REMARK  126  A    between atoms: _305  and  _306
REMARK  127  A    between atoms: _305  and  _308
REMARK  128  A    between atoms: _308  and  _309
REMARK  129  A    between atoms: _311  and  _313
REMARK  130  A    between atoms: _313  and  _314
REMARK  131  A    between atoms: _317  and  _319
REMARK  132  A    between atoms: _319  and  _320
REMARK  133  A    between atoms: _323  and  _325
REMARK  134  A    between atoms: _325  and  _326
REMARK  135  A    between atoms: _325  and  _328
REMARK  136  A    between atoms: _328  and  _329
REMARK  137  A    between atoms: _332  and  _334
REMARK  138  A    between atoms: _334  and  _335
REMARK  139  A    between atoms: _334  and  _337
REMARK  140  A    between atoms: _337  and  _338
REMARK  141  A    between atoms: _341  and  _343
REMARK  142  A    between atoms: _343  and  _344
REMARK  143  A    between atoms: _343  and  _346
REMARK  144  A    between atoms: _346  and  _347
REMARK  145  A    between atoms: _350  and  _352
REMARK  146  A    between atoms: _352  and  _353
REMARK  147  A    between atoms: _352  and  _355
REMARK  148  A    between atoms: _355  and  _356
REMARK  149  A    between atoms: _362  and  _364
REMARK  150  A    between atoms: _364  and  _365
REMARK  151  A    between atoms: _368  and  _369
REMARK  152  A    between atoms: _374  and  _376
REMARK  153  A    between atoms: _376  and  _377
REMARK  154  A    between atoms: _376  and  _379
REMARK  155  A    between atoms: _379  and  _380
REMARK  156  A    between atoms: _385  and  _386
REMARK  157  A    between atoms: _388  and  _390
REMARK  158  A    between atoms: _390  and  _391
REMARK  159  A    between atoms: _390  and  _393
REMARK  160  A    between atoms: _393  and  _394
REMARK  161  A    between atoms: _394  and  _395
REMARK  162  A    between atoms: _398  and  _400
REMARK  163  A    between atoms: _400  and  _401
REMARK  164  A    between atoms: _400  and  _403
REMARK  165  A    between atoms: _406  and  _408
REMARK  166  A    between atoms: _408  and  _409
REMARK  167  A    between atoms: _408  and  _411
REMARK  168  A    between atoms: _411  and  _412
REMARK  169  A    between atoms: _415  and  _417
REMARK  170  A    between atoms: _417  and  _418
REMARK  171  A    between atoms: _417  and  _420
REMARK  172  A    between atoms: _420  and  _421
REMARK  173  A    between atoms: _421  and  _422
REMARK  174  A    between atoms: _422  and  _423
REMARK  175  A    between atoms: _432  and  _434
REMARK  176  A    between atoms: _434  and  _435
REMARK  177  A    between atoms: _434  and  _437
REMARK  178  A    between atoms: _437  and  _438
REMARK  179  A    between atoms: _443  and  _445
REMARK  180  A    between atoms: _445  and  _446
REMARK  181  A    between atoms: _445  and  _448
REMARK  182  A    between atoms: _448  and  _449
REMARK  183  A    between atoms: _451  and  _453
REMARK  184  A    between atoms: _453  and  _454
REMARK  185  A    between atoms: _453  and  _456
REMARK  186  A    between atoms: _456  and  _457
REMARK  187  A    between atoms: _460  and  _462
REMARK  188  A    between atoms: _462  and  _463
REMARK  189  A    between atoms: _465  and  _467
REMARK  190  A    between atoms: _467  and  _468
REMARK  191  A    between atoms: _467  and  _470
REMARK  192  A    between atoms: _473  and  _475
REMARK  193  A    between atoms: _475  and  _476
REMARK  194  A    between atoms: _475  and  _478
REMARK  195  A    between atoms: _478  and  _479
REMARK  196  A    between atoms: _482  and  _484
REMARK  197  A    between atoms: _484  and  _485
REMARK  198  A    between atoms: _484  and  _487
REMARK  199  A    between atoms: _487  and  _488
REMARK  200  A    between atoms: _492  and  _493
REMARK  201  A    between atoms: _498  and  _500
REMARK  202  A    between atoms: _500  and  _501
REMARK  203  A    between atoms: _503  and  _505
REMARK  204  A    between atoms: _505  and  _506
REMARK  205  A    between atoms: _505  and  _508
REMARK  206  A    between atoms: _511  and  _513
REMARK  207  A    between atoms: _513  and  _514
REMARK  208  A    between atoms: _513  and  _516
REMARK  209  A    between atoms: _516  and  _517
REMARK  210  A    between atoms: _517  and  _518
REMARK  211  A    between atoms: _518  and  _519
REMARK  212  A    between atoms: _529  and  _530
REMARK  213  A    between atoms: _535  and  _537
REMARK  214  A    between atoms: _537  and  _538
REMARK  215  A    between atoms: _537  and  _540
REMARK  216  A    between atoms: _540  and  _541
REMARK  217  A    between atoms: _546  and  _548
REMARK  218  A    between atoms: _548  and  _549
REMARK  219  A    between atoms: _548  and  _551
REMARK  220  A    between atoms: _551  and  _552
REMARK  221  A    between atoms: _554  and  _556
REMARK  222  A    between atoms: _556  and  _557
REMARK  223  A    between atoms: _556  and  _559
REMARK  224  A    between atoms: _559  and  _560
REMARK  225  A    between atoms: _562  and  _564
REMARK  226  A    between atoms: _564  and  _565
REMARK  227  A    between atoms: _564  and  _567
REMARK  228  A    between atoms: _567  and  _568
REMARK  229  A    between atoms: _571  and  _573
REMARK  230  A    between atoms: _573  and  _574
REMARK  231  A    between atoms: _573  and  _576
REMARK  232  A    between atoms: _576  and  _577
REMARK  233  A    between atoms: _583  and  _585
REMARK  234  A    between atoms: _585  and  _586
REMARK  235  A    between atoms: _585  and  _588
REMARK  236  A    between atoms: _588  and  _589
REMARK  237  A    between atoms: _594  and  _596
REMARK  238  A    between atoms: _596  and  _597
REMARK  239  A    between atoms: _599  and  _601
REMARK  240  A    between atoms: _601  and  _602
REMARK  241  A    between atoms: _601  and  _604
REMARK  242  A    between atoms: _604  and  _605
REMARK  243  A    between atoms: _605  and  _606
REMARK  244  A    between atoms: _606  and  _607
REMARK  245  A    between atoms: _616  and  _618
REMARK  246  A    between atoms: _618  and  _619
REMARK  247  A    between atoms: _618  and  _621
REMARK  248  A    between atoms: _621  and  _622
REMARK  249  A    between atoms: _625  and  _627
REMARK  250  A    between atoms: _627  and  _628
REMARK  251  A    between atoms: _627  and  _630
REMARK  252  A    between atoms: _630  and  _631
REMARK                            x       y       z     vdW  Elec       q    Type
REMARK                         _______ _______ _______ _____ _____    ______ ____
ROOT
ATOM      1  O   HOH     1      10.891 -38.245   3.942  0.00  0.00    +0.000 OA
ENDROOT
TORSDOF 0
REMARK  Name = ../refined-set-2016/2wr8/2wr8_pocket.pdb
REMARK  252 active torsions:
REMARK  status: ('A' for Active; 'I' for Inactive)
REMARK    1  A    between atoms: _1  and  _3
REMARK    2  A    between atoms: _3  and  _4
REMARK    3  A    between atoms: _3  and  _6
REMARK    4  A    between atoms: _6  and  _7
REMARK    5  A    between atoms: _13  and  _15
REMARK    6  A    between atoms: _15  and  _16
REMARK    7  A    between atoms: _15  and  _18
REMARK    8  A    between atoms: _18  and  _19
REMARK    9  A    between atoms: _24  and  _25
REMARK   10  A    between atoms: _27  and  _29
REMARK   11  A    between atoms: _29  and  _30
REMARK   12  A    between atoms: _29  and  _32
REMARK   13  A    between atoms: _32  and  _33
REMARK   14  A    between atoms: _36  and  _38
REMARK   15  A    between atoms: _38  and  _39
REMARK   16  A    between atoms: _38  and  _41
REMARK   17  A    between atoms: _41  and  _42
REMARK   18  A    between atoms: _45  and  _47
REMARK   19  A    between atoms: _47  and  _48
REMARK   20  A    between atoms: _47  and  _50
REMARK   21  A    between atoms: _50  and  _51
REMARK   22  A    between atoms: _57  and  _59
REMARK   23  A    between atoms: _59  and  _60
REMARK   24  A    between atoms: _62  and  _64
REMARK   25  A    between atoms: _64  and  _65
REMARK   26  A    between atoms: _64  and  _67
REMARK   27  A    between atoms: _67  and  _68
REMARK   28  A    between atoms: _73  and  _75
REMARK   29  A    between atoms: _75  and  _76
REMARK   30  A    between atoms: _75  and  _78
REMARK   31  A    between atoms: _81  and  _83
REMARK   32  A    between atoms: _83  and  _84
REMARK   33  A    between atoms: _83  and  _86
REMARK   34  A    between atoms: _86  and  _87
REMARK   35  A    between atoms: _90  and  _92
REMARK   36  A    between atoms: _92  and  _93
REMARK   37  A    between atoms: _92  and  _95
REMARK   38  A    between atoms: _95  and  _96
REMARK   39  A    between atoms: _96  and  _97
REMARK   40  A    between atoms: _100  and  _102
REMARK   41  A    between atoms: _102  and  _103
REMARK   42  A    between atoms: _102  and  _105
REMARK   43  A    between atoms: _105  and  _106
REMARK   44  A    between atoms: _109  and  _111
REMARK   45  A    between atoms: _111  and  _112
REMARK   46  A    between atoms: _111  and  _114
REMARK   47  A    between atoms: _114  and  _115
REMARK   48  A    between atoms: _120  and  _121
REMARK   49  A    between atoms: _123  and  _125
REMARK   50  A    between atoms: _125  and  _126
REMARK   51  A    between atoms: _128  and  _130
REMARK   52  A    between atoms: _130  and  _131
REMARK   53  A    between atoms: _130  and  _133
REMARK   54  A    between atoms: _133  and  _134
REMARK   55  A    between atoms: _137  and  _139
REMARK   56  A    between atoms: _139  and  _140
REMARK   57  A    between atoms: _139  and  _142
REMARK   58  A    between atoms: _145  and  _147
REMARK   59  A    between atoms: _147  and  _148
REMARK   60  A    between atoms: _147  and  _150
REMARK   61  A    between atoms: _150  and  _151
REMARK   62  A    between atoms: _151  and  _152
REMARK   63  A    between atoms: _152  and  _153
REMARK   64  A    between atoms: _153  and  _154
REMARK   65  A    between atoms: _158  and  _160
REMARK   66  A    between atoms: _160  and  _161
REMARK   67  A    between atoms: _163  and  _165
REMARK   68  A    between atoms: _165  and  _166
REMARK   69  A    between atoms: _165  and  _168
REMARK   70  A    between atoms: _168  and  _169
REMARK   71  A    between atoms: _169  and  _170
REMARK   72  A    between atoms: _173  and  _175
REMARK   73  A    between atoms: _175  and  _176
REMARK   74  A    between atoms: _175  and  _178
REMARK   75  A    between atoms: _178  and  _179
REMARK   76  A    between atoms: _182  and  _184
REMARK   77  A    between atoms: _184  and  _185
REMARK   78  A    between atoms: _184  and  _187
REMARK   79  A    between atoms: _187  and  _188
REMARK   80  A    between atoms: _192  and  _193
REMARK   81  A    between atoms: _198  and  _200
REMARK   82  A    between atoms: _200  and  _201
REMARK   83  A    between atoms: _203  and  _205
REMARK   84  A    between atoms: _205  and  _206
REMARK   85  A    between atoms: _205  and  _208
REMARK   86  A    between atoms: _208  and  _209
REMARK   87  A    between atoms: _211  and  _213
REMARK   88  A    between atoms: _213  and  _214
REMARK   89  A    between atoms: _213  and  _216
REMARK   90  A    between atoms: _216  and  _217
REMARK   91  A    between atoms: _222  and  _224
REMARK   92  A    between atoms: _224  and  _225
REMARK   93  A    between atoms: _224  and  _227
REMARK   94  A    between atoms: _227  and  _228
REMARK   95  A    between atoms: _231  and  _233
REMARK   96  A    between atoms: _233  and  _234
REMARK   97  A    between atoms: _233  and  _236
REMARK   98  A    between atoms: _236  and  _237
REMARK   99  A    between atoms: _242  and  _243
REMARK  100  A    between atoms: _245  and  _247
REMARK  101  A    between atoms: _247  and  _248
REMARK  102  A    between atoms: _247  and  _250
REMARK  103  A    between atoms: _250  and  _251
REMARK  104  A    between atoms: _251  and  _252
REMARK  105  A    between atoms: _255  and  _257
REMARK  106  A    between atoms: _257  and  _258
REMARK  107  A    between atoms: _257  and  _260
REMARK  108  A    between atoms: _260  and  _261
REMARK  109  A    between atoms: _264  and  _266
REMARK  110  A    between atoms: _266  and  _267
REMARK  111  A    between atoms: _270  and  _272
REMARK  112  A    between atoms: _272  and  _273
REMARK  113  A    between atoms: _272  and  _275
REMARK  114  A    between atoms: _278  and  _280
REMARK  115  A    between atoms: _280  and  _281
REMARK  116  A    between atoms: _280  and  _283
REMARK  117  A    between atoms: _283  and  _284
REMARK  118  A    between atoms: _289  and  _291
REMARK  119  A    between atoms: _291  and  _292
REMARK  120  A    between atoms: _291  and  _294
REMARK  121  A    between atoms: _294  and  _295
REMARK  122  A    between atoms: _295  and  _296
REMARK  123  A    between atoms: _298  and  _300
REMARK  124  A    between atoms: _300  and  _301
REMARK  125  A    between atoms: _303  and  _305
REMARK  126  A    between atoms: _305  and  _306
REMARK  127  A    between atoms: _305  and  _308
REMARK  128  A    between atoms: _308  and  _309
REMARK  129  A    between atoms: _311  and  _313
REMARK  130  A    between atoms: _313  and  _314
REMARK  131  A    between atoms: _317  and  _319
REMARK  132  A    between atoms: _319  and  _320
REMARK  133  A    between atoms: _323  and  _325
REMARK  134  A    between atoms: _325  and  _326
REMARK  135  A    between atoms: _325  and  _328
REMARK  136  A    between atoms: _328  and  _329
REMARK  137  A    between atoms: _332  and  _334
REMARK  138  A    between atoms: _334  and  _335
REMARK  139  A    between atoms: _334  and  _337
REMARK  140  A    between atoms: _337  and  _338
REMARK  141  A    between atoms: _341  and  _343
REMARK  142  A    between atoms: _343  and  _344
REMARK  143  A    between atoms: _343  and  _346
REMARK  144  A    between atoms: _346  and  _347
REMARK  145  A    between atoms: _350  and  _352
REMARK  146  A    between atoms: _352  and  _353
REMARK  147  A    between atoms: _352  and  _355
REMARK  148  A    between atoms: _355  and  _356
REMARK  149  A    between atoms: _362  and  _364
REMARK  150  A    between atoms: _364  and  _365
REMARK  151  A    between atoms: _368  and  _369
REMARK  152  A    between atoms: _374  and  _376
REMARK  153  A    between atoms: _376  and  _377
REMARK  154  A    between atoms: _376  and  _379
REMARK  155  A    between atoms: _379  and  _380
REMARK  156  A    between atoms: _385  and  _386
REMARK  157  A    between atoms: _388  and  _390
REMARK  158  A    between atoms: _390  and  _391
REMARK  159  A    between atoms: _390  and  _393
REMARK  160  A    between atoms: _393  and  _394
REMARK  161  A    between atoms: _394  and  _395
REMARK  162  A    between atoms: _398  and  _400
REMARK  163  A    between atoms: _400  and  _401
REMARK  164  A    between atoms: _400  and  _403
REMARK  165  A    between atoms: _406  and  _408
REMARK  166  A    between atoms: _408  and  _409
REMARK  167  A    between atoms: _408  and  _411
REMARK  168  A    between atoms: _411  and  _412
REMARK  169  A    between atoms: _415  and  _417
REMARK  170  A    between atoms: _417  and  _418
REMARK  171  A    between atoms: _417  and  _420
REMARK  172  A    between atoms: _420  and  _421
REMARK  173  A    between atoms: _421  and  _422
REMARK  174  A    between atoms: _422  and  _423
REMARK  175  A    between atoms: _432  and  _434
REMARK  176  A    between atoms: _434  and  _435
REMARK  177  A    between atoms: _434  and  _437
REMARK  178  A    between atoms: _437  and  _438
REMARK  179  A    between atoms: _443  and  _445
REMARK  180  A    between atoms: _445  and  _446
REMARK  181  A    between atoms: _445  and  _448
REMARK  182  A    between atoms: _448  and  _449
REMARK  183  A    between atoms: _451  and  _453
REMARK  184  A    between atoms: _453  and  _454
REMARK  185  A    between atoms: _453  and  _456
REMARK  186  A    between atoms: _456  and  _457
REMARK  187  A    between atoms: _460  and  _462
REMARK  188  A    between atoms: _462  and  _463
REMARK  189  A    between atoms: _465  and  _467
REMARK  190  A    between atoms: _467  and  _468
REMARK  191  A    between atoms: _467  and  _470
REMARK  192  A    between atoms: _473  and  _475
REMARK  193  A    between atoms: _475  and  _476
REMARK  194  A    between atoms: _475  and  _478
REMARK  195  A    between atoms: _478  and  _479
REMARK  196  A    between atoms: _482  and  _484
REMARK  197  A    between atoms: _484  and  _485
REMARK  198  A    between atoms: _484  and  _487
REMARK  199  A    between atoms: _487  and  _488
REMARK  200  A    between atoms: _492  and  _493
REMARK  201  A    between atoms: _498  and  _500
REMARK  202  A    between atoms: _500  and  _501
REMARK  203  A    between atoms: _503  and  _505
REMARK  204  A    between atoms: _505  and  _506
REMARK  205  A    between atoms: _505  and  _508
REMARK  206  A    between atoms: _511  and  _513
REMARK  207  A    between atoms: _513  and  _514
REMARK  208  A    between atoms: _513  and  _516
REMARK  209  A    between atoms: _516  and  _517
REMARK  210  A    between atoms: _517  and  _518
REMARK  211  A    between atoms: _518  and  _519
REMARK  212  A    between atoms: _529  and  _530
REMARK  213  A    between atoms: _535  and  _537
REMARK  214  A    between atoms: _537  and  _538
REMARK  215  A    between atoms: _537  and  _540
REMARK  216  A    between atoms: _540  and  _541
REMARK  217  A    between atoms: _546  and  _548
REMARK  218  A    between atoms: _548  and  _549
REMARK  219  A    between atoms: _548  and  _551
REMARK  220  A    between atoms: _551  and  _552
REMARK  221  A    between atoms: _554  and  _556
REMARK  222  A    between atoms: _556  and  _557
REMARK  223  A    between atoms: _556  and  _559
REMARK  224  A    between atoms: _559  and  _560
REMARK  225  A    between atoms: _562  and  _564
REMARK  226  A    between atoms: _564  and  _565
REMARK  227  A    between atoms: _564  and  _567
REMARK  228  A    between atoms: _567  and  _568
REMARK  229  A    between atoms: _571  and  _573
REMARK  230  A    between atoms: _573  and  _574
REMARK  231  A    between atoms: _573  and  _576
REMARK  232  A    between atoms: _576  and  _577
REMARK  233  A    between atoms: _583  and  _585
REMARK  234  A    between atoms: _585  and  _586
REMARK  235  A    between atoms: _585  and  _588
REMARK  236  A    between atoms: _588  and  _589
REMARK  237  A    between atoms: _594  and  _596
REMARK  238  A    between atoms: _596  and  _597
REMARK  239  A    between atoms: _599  and  _601
REMARK  240  A    between atoms: _601  and  _602
REMARK  241  A    between atoms: _601  and  _604
REMARK  242  A    between atoms: _604  and  _605
REMARK  243  A    between atoms: _605  and  _606
REMARK  244  A    between atoms: _606  and  _607
REMARK  245  A    between atoms: _616  and  _618
REMARK  246  A    between atoms: _618  and  _619
REMARK  247  A    between atoms: _618  and  _621
REMARK  248  A    between atoms: _621  and  _622
REMARK  249  A    between atoms: _625  and  _627
REMARK  250  A    between atoms: _627  and  _628
REMARK  251  A    between atoms: _627  and  _630
REMARK  252  A    between atoms: _630  and  _631
REMARK                            x       y       z     vdW  Elec       q    Type
REMARK                         _______ _______ _______ _____ _____    ______ ____
ROOT
ATOM      1  O   HOH     1       6.395 -45.182   8.720  0.00  0.00    +0.000 OA
ENDROOT
TORSDOF 0
REMARK  Name = ../refined-set-2016/2wr8/2wr8_pocket.pdb
REMARK  252 active torsions:
REMARK  status: ('A' for Active; 'I' for Inactive)
REMARK    1  A    between atoms: _1  and  _3
REMARK    2  A    between atoms: _3  and  _4
REMARK    3  A    between atoms: _3  and  _6
REMARK    4  A    between atoms: _6  and  _7
REMARK    5  A    between atoms: _13  and  _15
REMARK    6  A    between atoms: _15  and  _16
REMARK    7  A    between atoms: _15  and  _18
REMARK    8  A    between atoms: _18  and  _19
REMARK    9  A    between atoms: _24  and  _25
REMARK   10  A    between atoms: _27  and  _29
REMARK   11  A    between atoms: _29  and  _30
REMARK   12  A    between atoms: _29  and  _32
REMARK   13  A    between atoms: _32  and  _33
REMARK   14  A    between atoms: _36  and  _38
REMARK   15  A    between atoms: _38  and  _39
REMARK   16  A    between atoms: _38  and  _41
REMARK   17  A    between atoms: _41  and  _42
REMARK   18  A    between atoms: _45  and  _47
REMARK   19  A    between atoms: _47  and  _48
REMARK   20  A    between atoms: _47  and  _50
REMARK   21  A    between atoms: _50  and  _51
REMARK   22  A    between atoms: _57  and  _59
REMARK   23  A    between atoms: _59  and  _60
REMARK   24  A    between atoms: _62  and  _64
REMARK   25  A    between atoms: _64  and  _65
REMARK   26  A    between atoms: _64  and  _67
REMARK   27  A    between atoms: _67  and  _68
REMARK   28  A    between atoms: _73  and  _75
REMARK   29  A    between atoms: _75  and  _76
REMARK   30  A    between atoms: _75  and  _78
REMARK   31  A    between atoms: _81  and  _83
REMARK   32  A    between atoms: _83  and  _84
REMARK   33  A    between atoms: _83  and  _86
REMARK   34  A    between atoms: _86  and  _87
REMARK   35  A    between atoms: _90  and  _92
REMARK   36  A    between atoms: _92  and  _93
REMARK   37  A    between atoms: _92  and  _95
REMARK   38  A    between atoms: _95  and  _96
REMARK   39  A    between atoms: _96  and  _97
REMARK   40  A    between atoms: _100  and  _102
REMARK   41  A    between atoms: _102  and  _103
REMARK   42  A    between atoms: _102  and  _105
REMARK   43  A    between atoms: _105  and  _106
REMARK   44  A    between atoms: _109  and  _111
REMARK   45  A    between atoms: _111  and  _112
REMARK   46  A    between atoms: _111  and  _114
REMARK   47  A    between atoms: _114  and  _115
REMARK   48  A    between atoms: _120  and  _121
REMARK   49  A    between atoms: _123  and  _125
REMARK   50  A    between atoms: _125  and  _126
REMARK   51  A    between atoms: _128  and  _130
REMARK   52  A    between atoms: _130  and  _131
REMARK   53  A    between atoms: _130  and  _133
REMARK   54  A    between atoms: _133  and  _134
REMARK   55  A    between atoms: _137  and  _139
REMARK   56  A    between atoms: _139  and  _140
REMARK   57  A    between atoms: _139  and  _142
REMARK   58  A    between atoms: _145  and  _147
REMARK   59  A    between atoms: _147  and  _148
REMARK   60  A    between atoms: _147  and  _150
REMARK   61  A    between atoms: _150  and  _151
REMARK   62  A    between atoms: _151  and  _152
REMARK   63  A    between atoms: _152  and  _153
REMARK   64  A    between atoms: _153  and  _154
REMARK   65  A    between atoms: _158  and  _160
REMARK   66  A    between atoms: _160  and  _161
REMARK   67  A    between atoms: _163  and  _165
REMARK   68  A    between atoms: _165  and  _166
REMARK   69  A    between atoms: _165  and  _168
REMARK   70  A    between atoms: _168  and  _169
REMARK   71  A    between atoms: _169  and  _170
REMARK   72  A    between atoms: _173  and  _175
REMARK   73  A    between atoms: _175  and  _176
REMARK   74  A    between atoms: _175  and  _178
REMARK   75  A    between atoms: _178  and  _179
REMARK   76  A    between atoms: _182  and  _184
REMARK   77  A    between atoms: _184  and  _185
REMARK   78  A    between atoms: _184  and  _187
REMARK   79  A    between atoms: _187  and  _188
REMARK   80  A    between atoms: _192  and  _193
REMARK   81  A    between atoms: _198  and  _200
REMARK   82  A    between atoms: _200  and  _201
REMARK   83  A    between atoms: _203  and  _205
REMARK   84  A    between atoms: _205  and  _206
REMARK   85  A    between atoms: _205  and  _208
REMARK   86  A    between atoms: _208  and  _209
REMARK   87  A    between atoms: _211  and  _213
REMARK   88  A    between atoms: _213  and  _214
REMARK   89  A    between atoms: _213  and  _216
REMARK   90  A    between atoms: _216  and  _217
REMARK   91  A    between atoms: _222  and  _224
REMARK   92  A    between atoms: _224  and  _225
REMARK   93  A    between atoms: _224  and  _227
REMARK   94  A    between atoms: _227  and  _228
REMARK   95  A    between atoms: _231  and  _233
REMARK   96  A    between atoms: _233  and  _234
REMARK   97  A    between atoms: _233  and  _236
REMARK   98  A    between atoms: _236  and  _237
REMARK   99  A    between atoms: _242  and  _243
REMARK  100  A    between atoms: _245  and  _247
REMARK  101  A    between atoms: _247  and  _248
REMARK  102  A    between atoms: _247  and  _250
REMARK  103  A    between atoms: _250  and  _251
REMARK  104  A    between atoms: _251  and  _252
REMARK  105  A    between atoms: _255  and  _257
REMARK  106  A    between atoms: _257  and  _258
REMARK  107  A    between atoms: _257  and  _260
REMARK  108  A    between atoms: _260  and  _261
REMARK  109  A    between atoms: _264  and  _266
REMARK  110  A    between atoms: _266  and  _267
REMARK  111  A    between atoms: _270  and  _272
REMARK  112  A    between atoms: _272  and  _273
REMARK  113  A    between atoms: _272  and  _275
REMARK  114  A    between atoms: _278  and  _280
REMARK  115  A    between atoms: _280  and  _281
REMARK  116  A    between atoms: _280  and  _283
REMARK  117  A    between atoms: _283  and  _284
REMARK  118  A    between atoms: _289  and  _291
REMARK  119  A    between atoms: _291  and  _292
REMARK  120  A    between atoms: _291  and  _294
REMARK  121  A    between atoms: _294  and  _295
REMARK  122  A    between atoms: _295  and  _296
REMARK  123  A    between atoms: _298  and  _300
REMARK  124  A    between atoms: _300  and  _301
REMARK  125  A    between atoms: _303  and  _305
REMARK  126  A    between atoms: _305  and  _306
REMARK  127  A    between atoms: _305  and  _308
REMARK  128  A    between atoms: _308  and  _309
REMARK  129  A    between atoms: _311  and  _313
REMARK  130  A    between atoms: _313  and  _314
REMARK  131  A    between atoms: _317  and  _319
REMARK  132  A    between atoms: _319  and  _320
REMARK  133  A    between atoms: _323  and  _325
REMARK  134  A    between atoms: _325  and  _326
REMARK  135  A    between atoms: _325  and  _328
REMARK  136  A    between atoms: _328  and  _329
REMARK  137  A    between atoms: _332  and  _334
REMARK  138  A    between atoms: _334  and  _335
REMARK  139  A    between atoms: _334  and  _337
REMARK  140  A    between atoms: _337  and  _338
REMARK  141  A    between atoms: _341  and  _343
REMARK  142  A    between atoms: _343  and  _344
REMARK  143  A    between atoms: _343  and  _346
REMARK  144  A    between atoms: _346  and  _347
REMARK  145  A    between atoms: _350  and  _352
REMARK  146  A    between atoms: _352  and  _353
REMARK  147  A    between atoms: _352  and  _355
REMARK  148  A    between atoms: _355  and  _356
REMARK  149  A    between atoms: _362  and  _364
REMARK  150  A    between atoms: _364  and  _365
REMARK  151  A    between atoms: _368  and  _369
REMARK  152  A    between atoms: _374  and  _376
REMARK  153  A    between atoms: _376  and  _377
REMARK  154  A    between atoms: _376  and  _379
REMARK  155  A    between atoms: _379  and  _380
REMARK  156  A    between atoms: _385  and  _386
REMARK  157  A    between atoms: _388  and  _390
REMARK  158  A    between atoms: _390  and  _391
REMARK  159  A    between atoms: _390  and  _393
REMARK  160  A    between atoms: _393  and  _394
REMARK  161  A    between atoms: _394  and  _395
REMARK  162  A    between atoms: _398  and  _400
REMARK  163  A    between atoms: _400  and  _401
REMARK  164  A    between atoms: _400  and  _403
REMARK  165  A    between atoms: _406  and  _408
REMARK  166  A    between atoms: _408  and  _409
REMARK  167  A    between atoms: _408  and  _411
REMARK  168  A    between atoms: _411  and  _412
REMARK  169  A    between atoms: _415  and  _417
REMARK  170  A    between atoms: _417  and  _418
REMARK  171  A    between atoms: _417  and  _420
REMARK  172  A    between atoms: _420  and  _421
REMARK  173  A    between atoms: _421  and  _422
REMARK  174  A    between atoms: _422  and  _423
REMARK  175  A    between atoms: _432  and  _434
REMARK  176  A    between atoms: _434  and  _435
REMARK  177  A    between atoms: _434  and  _437
REMARK  178  A    between atoms: _437  and  _438
REMARK  179  A    between atoms: _443  and  _445
REMARK  180  A    between atoms: _445  and  _446
REMARK  181  A    between atoms: _445  and  _448
REMARK  182  A    between atoms: _448  and  _449
REMARK  183  A    between atoms: _451  and  _453
REMARK  184  A    between atoms: _453  and  _454
REMARK  185  A    between atoms: _453  and  _456
REMARK  186  A    between atoms: _456  and  _457
REMARK  187  A    between atoms: _460  and  _462
REMARK  188  A    between atoms: _462  and  _463
REMARK  189  A    between atoms: _465  and  _467
REMARK  190  A    between atoms: _467  and  _468
REMARK  191  A    between atoms: _467  and  _470
REMARK  192  A    between atoms: _473  and  _475
REMARK  193  A    between atoms: _475  and  _476
REMARK  194  A    between atoms: _475  and  _478
REMARK  195  A    between atoms: _478  and  _479
REMARK  196  A    between atoms: _482  and  _484
REMARK  197  A    between atoms: _484  and  _485
REMARK  198  A    between atoms: _484  and  _487
REMARK  199  A    between atoms: _487  and  _488
REMARK  200  A    between atoms: _492  and  _493
REMARK  201  A    between atoms: _498  and  _500
REMARK  202  A    between atoms: _500  and  _501
REMARK  203  A    between atoms: _503  and  _505
REMARK  204  A    between atoms: _505  and  _506
REMARK  205  A    between atoms: _505  and  _508
REMARK  206  A    between atoms: _511  and  _513
REMARK  207  A    between atoms: _513  and  _514
REMARK  208  A    between atoms: _513  and  _516
REMARK  209  A    between atoms: _516  and  _517
REMARK  210  A    between atoms: _517  and  _518
REMARK  211  A    between atoms: _518  and  _519
REMARK  212  A    between atoms: _529  and  _530
REMARK  213  A    between atoms: _535  and  _537
REMARK  214  A    between atoms: _537  and  _538
REMARK  215  A    between atoms: _537  and  _540
REMARK  216  A    between atoms: _540  and  _541
REMARK  217  A    between atoms: _546  and  _548
REMARK  218  A    between atoms: _548  and  _549
REMARK  219  A    between atoms: _548  and  _551
REMARK  220  A    between atoms: _551  and  _552
REMARK  221  A    between atoms: _554  and  _556
REMARK  222  A    between atoms: _556  and  _557
REMARK  223  A    between atoms: _556  and  _559
REMARK  224  A    between atoms: _559  and  _560
REMARK  225  A    between atoms: _562  and  _564
REMARK  226  A    between atoms: _564  and  _565
REMARK  227  A    between atoms: _564  and  _567
REMARK  228  A    between atoms: _567  and  _568
REMARK  229  A    between atoms: _571  and  _573
REMARK  230  A    between atoms: _573  and  _574
REMARK  231  A    between atoms: _573  and  _576
REMARK  232  A    between atoms: _576  and  _577
REMARK  233  A    between atoms: _583  and  _585
REMARK  234  A    between atoms: _585  and  _586
REMARK  235  A    between atoms: _585  and  _588
REMARK  236  A    between atoms: _588  and  _589
REMARK  237  A    between atoms: _594  and  _596
REMARK  238  A    between atoms: _596  and  _597
REMARK  239  A    between atoms: _599  and  _601
REMARK  240  A    between atoms: _601  and  _602
REMARK  241  A    between atoms: _601  and  _604
REMARK  242  A    between atoms: _604  and  _605
REMARK  243  A    between atoms: _605  and  _606
REMARK  244  A    between atoms: _606  and  _607
REMARK  245  A    between atoms: _616  and  _618
REMARK  246  A    between atoms: _618  and  _619
REMARK  247  A    between atoms: _618  and  _621
REMARK  248  A    between atoms: _621  and  _622
REMARK  249  A    between atoms: _625  and  _627
REMARK  250  A    between atoms: _627  and  _628
REMARK  251  A    between atoms: _627  and  _630
REMARK  252  A    between atoms: _630  and  _631
REMARK                            x       y       z     vdW  Elec       q    Type
REMARK                         _______ _______ _______ _____ _____    ______ ____
ROOT
ATOM      1  O   HOH     1      10.459 -55.869  11.259  0.00  0.00    +0.000 OA
ENDROOT
TORSDOF 0
REMARK  Name = ../refined-set-2016/2wr8/2wr8_pocket.pdb
REMARK  252 active torsions:
REMARK  status: ('A' for Active; 'I' for Inactive)
REMARK    1  A    between atoms: _1  and  _3
REMARK    2  A    between atoms: _3  and  _4
REMARK    3  A    between atoms: _3  and  _6
REMARK    4  A    between atoms: _6  and  _7
REMARK    5  A    between atoms: _13  and  _15
REMARK    6  A    between atoms: _15  and  _16
REMARK    7  A    between atoms: _15  and  _18
REMARK    8  A    between atoms: _18  and  _19
REMARK    9  A    between atoms: _24  and  _25
REMARK   10  A    between atoms: _27  and  _29
REMARK   11  A    between atoms: _29  and  _30
REMARK   12  A    between atoms: _29  and  _32
REMARK   13  A    between atoms: _32  and  _33
REMARK   14  A    between atoms: _36  and  _38
REMARK   15  A    between atoms: _38  and  _39
REMARK   16  A    between atoms: _38  and  _41
REMARK   17  A    between atoms: _41  and  _42
REMARK   18  A    between atoms: _45  and  _47
REMARK   19  A    between atoms: _47  and  _48
REMARK   20  A    between atoms: _47  and  _50
REMARK   21  A    between atoms: _50  and  _51
REMARK   22  A    between atoms: _57  and  _59
REMARK   23  A    between atoms: _59  and  _60
REMARK   24  A    between atoms: _62  and  _64
REMARK   25  A    between atoms: _64  and  _65
REMARK   26  A    between atoms: _64  and  _67
REMARK   27  A    between atoms: _67  and  _68
REMARK   28  A    between atoms: _73  and  _75
REMARK   29  A    between atoms: _75  and  _76
REMARK   30  A    between atoms: _75  and  _78
REMARK   31  A    between atoms: _81  and  _83
REMARK   32  A    between atoms: _83  and  _84
REMARK   33  A    between atoms: _83  and  _86
REMARK   34  A    between atoms: _86  and  _87
REMARK   35  A    between atoms: _90  and  _92
REMARK   36  A    between atoms: _92  and  _93
REMARK   37  A    between atoms: _92  and  _95
REMARK   38  A    between atoms: _95  and  _96
REMARK   39  A    between atoms: _96  and  _97
REMARK   40  A    between atoms: _100  and  _102
REMARK   41  A    between atoms: _102  and  _103
REMARK   42  A    between atoms: _102  and  _105
REMARK   43  A    between atoms: _105  and  _106
REMARK   44  A    between atoms: _109  and  _111
REMARK   45  A    between atoms: _111  and  _112
REMARK   46  A    between atoms: _111  and  _114
REMARK   47  A    between atoms: _114  and  _115
REMARK   48  A    between atoms: _120  and  _121
REMARK   49  A    between atoms: _123  and  _125
REMARK   50  A    between atoms: _125  and  _126
REMARK   51  A    between atoms: _128  and  _130
REMARK   52  A    between atoms: _130  and  _131
REMARK   53  A    between atoms: _130  and  _133
REMARK   54  A    between atoms: _133  and  _134
REMARK   55  A    between atoms: _137  and  _139
REMARK   56  A    between atoms: _139  and  _140
REMARK   57  A    between atoms: _139  and  _142
REMARK   58  A    between atoms: _145  and  _147
REMARK   59  A    between atoms: _147  and  _148
REMARK   60  A    between atoms: _147  and  _150
REMARK   61  A    between atoms: _150  and  _151
REMARK   62  A    between atoms: _151  and  _152
REMARK   63  A    between atoms: _152  and  _153
REMARK   64  A    between atoms: _153  and  _154
REMARK   65  A    between atoms: _158  and  _160
REMARK   66  A    between atoms: _160  and  _161
REMARK   67  A    between atoms: _163  and  _165
REMARK   68  A    between atoms: _165  and  _166
REMARK   69  A    between atoms: _165  and  _168
REMARK   70  A    between atoms: _168  and  _169
REMARK   71  A    between atoms: _169  and  _170
REMARK   72  A    between atoms: _173  and  _175
REMARK   73  A    between atoms: _175  and  _176
REMARK   74  A    between atoms: _175  and  _178
REMARK   75  A    between atoms: _178  and  _179
REMARK   76  A    between atoms: _182  and  _184
REMARK   77  A    between atoms: _184  and  _185
REMARK   78  A    between atoms: _184  and  _187
REMARK   79  A    between atoms: _187  and  _188
REMARK   80  A    between atoms: _192  and  _193
REMARK   81  A    between atoms: _198  and  _200
REMARK   82  A    between atoms: _200  and  _201
REMARK   83  A    between atoms: _203  and  _205
REMARK   84  A    between atoms: _205  and  _206
REMARK   85  A    between atoms: _205  and  _208
REMARK   86  A    between atoms: _208  and  _209
REMARK   87  A    between atoms: _211  and  _213
REMARK   88  A    between atoms: _213  and  _214
REMARK   89  A    between atoms: _213  and  _216
REMARK   90  A    between atoms: _216  and  _217
REMARK   91  A    between atoms: _222  and  _224
REMARK   92  A    between atoms: _224  and  _225
REMARK   93  A    between atoms: _224  and  _227
REMARK   94  A    between atoms: _227  and  _228
REMARK   95  A    between atoms: _231  and  _233
REMARK   96  A    between atoms: _233  and  _234
REMARK   97  A    between atoms: _233  and  _236
REMARK   98  A    between atoms: _236  and  _237
REMARK   99  A    between atoms: _242  and  _243
REMARK  100  A    between atoms: _245  and  _247
REMARK  101  A    between atoms: _247  and  _248
REMARK  102  A    between atoms: _247  and  _250
REMARK  103  A    between atoms: _250  and  _251
REMARK  104  A    between atoms: _251  and  _252
REMARK  105  A    between atoms: _255  and  _257
REMARK  106  A    between atoms: _257  and  _258
REMARK  107  A    between atoms: _257  and  _260
REMARK  108  A    between atoms: _260  and  _261
REMARK  109  A    between atoms: _264  and  _266
REMARK  110  A    between atoms: _266  and  _267
REMARK  111  A    between atoms: _270  and  _272
REMARK  112  A    between atoms: _272  and  _273
REMARK  113  A    between atoms: _272  and  _275
REMARK  114  A    between atoms: _278  and  _280
REMARK  115  A    between atoms: _280  and  _281
REMARK  116  A    between atoms: _280  and  _283
REMARK  117  A    between atoms: _283  and  _284
REMARK  118  A    between atoms: _289  and  _291
REMARK  119  A    between atoms: _291  and  _292
REMARK  120  A    between atoms: _291  and  _294
REMARK  121  A    between atoms: _294  and  _295
REMARK  122  A    between atoms: _295  and  _296
REMARK  123  A    between atoms: _298  and  _300
REMARK  124  A    between atoms: _300  and  _301
REMARK  125  A    between atoms: _303  and  _305
REMARK  126  A    between atoms: _305  and  _306
REMARK  127  A    between atoms: _305  and  _308
REMARK  128  A    between atoms: _308  and  _309
REMARK  129  A    between atoms: _311  and  _313
REMARK  130  A    between atoms: _313  and  _314
REMARK  131  A    between atoms: _317  and  _319
REMARK  132  A    between atoms: _319  and  _320
REMARK  133  A    between atoms: _323  and  _325
REMARK  134  A    between atoms: _325  and  _326
REMARK  135  A    between atoms: _325  and  _328
REMARK  136  A    between atoms: _328  and  _329
REMARK  137  A    between atoms: _332  and  _334
REMARK  138  A    between atoms: _334  and  _335
REMARK  139  A    between atoms: _334  and  _337
REMARK  140  A    between atoms: _337  and  _338
REMARK  141  A    between atoms: _341  and  _343
REMARK  142  A    between atoms: _343  and  _344
REMARK  143  A    between atoms: _343  and  _346
REMARK  144  A    between atoms: _346  and  _347
REMARK  145  A    between atoms: _350  and  _352
REMARK  146  A    between atoms: _352  and  _353
REMARK  147  A    between atoms: _352  and  _355
REMARK  148  A    between atoms: _355  and  _356
REMARK  149  A    between atoms: _362  and  _364
REMARK  150  A    between atoms: _364  and  _365
REMARK  151  A    between atoms: _368  and  _369
REMARK  152  A    between atoms: _374  and  _376
REMARK  153  A    between atoms: _376  and  _377
REMARK  154  A    between atoms: _376  and  _379
REMARK  155  A    between atoms: _379  and  _380
REMARK  156  A    between atoms: _385  and  _386
REMARK  157  A    between atoms: _388  and  _390
REMARK  158  A    between atoms: _390  and  _391
REMARK  159  A    between atoms: _390  and  _393
REMARK  160  A    between atoms: _393  and  _394
REMARK  161  A    between atoms: _394  and  _395
REMARK  162  A    between atoms: _398  and  _400
REMARK  163  A    between atoms: _400  and  _401
REMARK  164  A    between atoms: _400  and  _403
REMARK  165  A    between atoms: _406  and  _408
REMARK  166  A    between atoms: _408  and  _409
REMARK  167  A    between atoms: _408  and  _411
REMARK  168  A    between atoms: _411  and  _412
REMARK  169  A    between atoms: _415  and  _417
REMARK  170  A    between atoms: _417  and  _418
REMARK  171  A    between atoms: _417  and  _420
REMARK  172  A    between atoms: _420  and  _421
REMARK  173  A    between atoms: _421  and  _422
REMARK  174  A    between atoms: _422  and  _423
REMARK  175  A    between atoms: _432  and  _434
REMARK  176  A    between atoms: _434  and  _435
REMARK  177  A    between atoms: _434  and  _437
REMARK  178  A    between atoms: _437  and  _438
REMARK  179  A    between atoms: _443  and  _445
REMARK  180  A    between atoms: _445  and  _446
REMARK  181  A    between atoms: _445  and  _448
REMARK  182  A    between atoms: _448  and  _449
REMARK  183  A    between atoms: _451  and  _453
REMARK  184  A    between atoms: _453  and  _454
REMARK  185  A    between atoms: _453  and  _456
REMARK  186  A    between atoms: _456  and  _457
REMARK  187  A    between atoms: _460  and  _462
REMARK  188  A    between atoms: _462  and  _463
REMARK  189  A    between atoms: _465  and  _467
REMARK  190  A    between atoms: _467  and  _468
REMARK  191  A    between atoms: _467  and  _470
REMARK  192  A    between atoms: _473  and  _475
REMARK  193  A    between atoms: _475  and  _476
REMARK  194  A    between atoms: _475  and  _478
REMARK  195  A    between atoms: _478  and  _479
REMARK  196  A    between atoms: _482  and  _484
REMARK  197  A    between atoms: _484  and  _485
REMARK  198  A    between atoms: _484  and  _487
REMARK  199  A    between atoms: _487  and  _488
REMARK  200  A    between atoms: _492  and  _493
REMARK  201  A    between atoms: _498  and  _500
REMARK  202  A    between atoms: _500  and  _501
REMARK  203  A    between atoms: _503  and  _505
REMARK  204  A    between atoms: _505  and  _506
REMARK  205  A    between atoms: _505  and  _508
REMARK  206  A    between atoms: _511  and  _513
REMARK  207  A    between atoms: _513  and  _514
REMARK  208  A    between atoms: _513  and  _516
REMARK  209  A    between atoms: _516  and  _517
REMARK  210  A    between atoms: _517  and  _518
REMARK  211  A    between atoms: _518  and  _519
REMARK  212  A    between atoms: _529  and  _530
REMARK  213  A    between atoms: _535  and  _537
REMARK  214  A    between atoms: _537  and  _538
REMARK  215  A    between atoms: _537  and  _540
REMARK  216  A    between atoms: _540  and  _541
REMARK  217  A    between atoms: _546  and  _548
REMARK  218  A    between atoms: _548  and  _549
REMARK  219  A    between atoms: _548  and  _551
REMARK  220  A    between atoms: _551  and  _552
REMARK  221  A    between atoms: _554  and  _556
REMARK  222  A    between atoms: _556  and  _557
REMARK  223  A    between atoms: _556  and  _559
REMARK  224  A    between atoms: _559  and  _560
REMARK  225  A    between atoms: _562  and  _564
REMARK  226  A    between atoms: _564  and  _565
REMARK  227  A    between atoms: _564  and  _567
REMARK  228  A    between atoms: _567  and  _568
REMARK  229  A    between atoms: _571  and  _573
REMARK  230  A    between atoms: _573  and  _574
REMARK  231  A    between atoms: _573  and  _576
REMARK  232  A    between atoms: _576  and  _577
REMARK  233  A    between atoms: _583  and  _585
REMARK  234  A    between atoms: _585  and  _586
REMARK  235  A    between atoms: _585  and  _588
REMARK  236  A    between atoms: _588  and  _589
REMARK  237  A    between atoms: _594  and  _596
REMARK  238  A    between atoms: _596  and  _597
REMARK  239  A    between atoms: _599  and  _601
REMARK  240  A    between atoms: _601  and  _602
REMARK  241  A    between atoms: _601  and  _604
REMARK  242  A    between atoms: _604  and  _605
REMARK  243  A    between atoms: _605  and  _606
REMARK  244  A    between atoms: _606  and  _607
REMARK  245  A    between atoms: _616  and  _618
REMARK  246  A    between atoms: _618  and  _619
REMARK  247  A    between atoms: _618  and  _621
REMARK  248  A    between atoms: _621  and  _622
REMARK  249  A    between atoms: _625  and  _627
REMARK  250  A    between atoms: _627  and  _628
REMARK  251  A    between atoms: _627  and  _630
REMARK  252  A    between atoms: _630  and  _631
REMARK                            x       y       z     vdW  Elec       q    Type
REMARK                         _______ _______ _______ _____ _____    ______ ____
ROOT
ATOM      1  O   HOH     1      14.713 -55.666   5.218  0.00  0.00    +0.000 OA
ENDROOT
TORSDOF 0
REMARK  Name = ../refined-set-2016/2wr8/2wr8_pocket.pdb
REMARK  252 active torsions:
REMARK  status: ('A' for Active; 'I' for Inactive)
REMARK    1  A    between atoms: _1  and  _3
REMARK    2  A    between atoms: _3  and  _4
REMARK    3  A    between atoms: _3  and  _6
REMARK    4  A    between atoms: _6  and  _7
REMARK    5  A    between atoms: _13  and  _15
REMARK    6  A    between atoms: _15  and  _16
REMARK    7  A    between atoms: _15  and  _18
REMARK    8  A    between atoms: _18  and  _19
REMARK    9  A    between atoms: _24  and  _25
REMARK   10  A    between atoms: _27  and  _29
REMARK   11  A    between atoms: _29  and  _30
REMARK   12  A    between atoms: _29  and  _32
REMARK   13  A    between atoms: _32  and  _33
REMARK   14  A    between atoms: _36  and  _38
REMARK   15  A    between atoms: _38  and  _39
REMARK   16  A    between atoms: _38  and  _41
REMARK   17  A    between atoms: _41  and  _42
REMARK   18  A    between atoms: _45  and  _47
REMARK   19  A    between atoms: _47  and  _48
REMARK   20  A    between atoms: _47  and  _50
REMARK   21  A    between atoms: _50  and  _51
REMARK   22  A    between atoms: _57  and  _59
REMARK   23  A    between atoms: _59  and  _60
REMARK   24  A    between atoms: _62  and  _64
REMARK   25  A    between atoms: _64  and  _65
REMARK   26  A    between atoms: _64  and  _67
REMARK   27  A    between atoms: _67  and  _68
REMARK   28  A    between atoms: _73  and  _75
REMARK   29  A    between atoms: _75  and  _76
REMARK   30  A    between atoms: _75  and  _78
REMARK   31  A    between atoms: _81  and  _83
REMARK   32  A    between atoms: _83  and  _84
REMARK   33  A    between atoms: _83  and  _86
REMARK   34  A    between atoms: _86  and  _87
REMARK   35  A    between atoms: _90  and  _92
REMARK   36  A    between atoms: _92  and  _93
REMARK   37  A    between atoms: _92  and  _95
REMARK   38  A    between atoms: _95  and  _96
REMARK   39  A    between atoms: _96  and  _97
REMARK   40  A    between atoms: _100  and  _102
REMARK   41  A    between atoms: _102  and  _103
REMARK   42  A    between atoms: _102  and  _105
REMARK   43  A    between atoms: _105  and  _106
REMARK   44  A    between atoms: _109  and  _111
REMARK   45  A    between atoms: _111  and  _112
REMARK   46  A    between atoms: _111  and  _114
REMARK   47  A    between atoms: _114  and  _115
REMARK   48  A    between atoms: _120  and  _121
REMARK   49  A    between atoms: _123  and  _125
REMARK   50  A    between atoms: _125  and  _126
REMARK   51  A    between atoms: _128  and  _130
REMARK   52  A    between atoms: _130  and  _131
REMARK   53  A    between atoms: _130  and  _133
REMARK   54  A    between atoms: _133  and  _134
REMARK   55  A    between atoms: _137  and  _139
REMARK   56  A    between atoms: _139  and  _140
REMARK   57  A    between atoms: _139  and  _142
REMARK   58  A    between atoms: _145  and  _147
REMARK   59  A    between atoms: _147  and  _148
REMARK   60  A    between atoms: _147  and  _150
REMARK   61  A    between atoms: _150  and  _151
REMARK   62  A    between atoms: _151  and  _152
REMARK   63  A    between atoms: _152  and  _153
REMARK   64  A    between atoms: _153  and  _154
REMARK   65  A    between atoms: _158  and  _160
REMARK   66  A    between atoms: _160  and  _161
REMARK   67  A    between atoms: _163  and  _165
REMARK   68  A    between atoms: _165  and  _166
REMARK   69  A    between atoms: _165  and  _168
REMARK   70  A    between atoms: _168  and  _169
REMARK   71  A    between atoms: _169  and  _170
REMARK   72  A    between atoms: _173  and  _175
REMARK   73  A    between atoms: _175  and  _176
REMARK   74  A    between atoms: _175  and  _178
REMARK   75  A    between atoms: _178  and  _179
REMARK   76  A    between atoms: _182  and  _184
REMARK   77  A    between atoms: _184  and  _185
REMARK   78  A    between atoms: _184  and  _187
REMARK   79  A    between atoms: _187  and  _188
REMARK   80  A    between atoms: _192  and  _193
REMARK   81  A    between atoms: _198  and  _200
REMARK   82  A    between atoms: _200  and  _201
REMARK   83  A    between atoms: _203  and  _205
REMARK   84  A    between atoms: _205  and  _206
REMARK   85  A    between atoms: _205  and  _208
REMARK   86  A    between atoms: _208  and  _209
REMARK   87  A    between atoms: _211  and  _213
REMARK   88  A    between atoms: _213  and  _214
REMARK   89  A    between atoms: _213  and  _216
REMARK   90  A    between atoms: _216  and  _217
REMARK   91  A    between atoms: _222  and  _224
REMARK   92  A    between atoms: _224  and  _225
REMARK   93  A    between atoms: _224  and  _227
REMARK   94  A    between atoms: _227  and  _228
REMARK   95  A    between atoms: _231  and  _233
REMARK   96  A    between atoms: _233  and  _234
REMARK   97  A    between atoms: _233  and  _236
REMARK   98  A    between atoms: _236  and  _237
REMARK   99  A    between atoms: _242  and  _243
REMARK  100  A    between atoms: _245  and  _247
REMARK  101  A    between atoms: _247  and  _248
REMARK  102  A    between atoms: _247  and  _250
REMARK  103  A    between atoms: _250  and  _251
REMARK  104  A    between atoms: _251  and  _252
REMARK  105  A    between atoms: _255  and  _257
REMARK  106  A    between atoms: _257  and  _258
REMARK  107  A    between atoms: _257  and  _260
REMARK  108  A    between atoms: _260  and  _261
REMARK  109  A    between atoms: _264  and  _266
REMARK  110  A    between atoms: _266  and  _267
REMARK  111  A    between atoms: _270  and  _272
REMARK  112  A    between atoms: _272  and  _273
REMARK  113  A    between atoms: _272  and  _275
REMARK  114  A    between atoms: _278  and  _280
REMARK  115  A    between atoms: _280  and  _281
REMARK  116  A    between atoms: _280  and  _283
REMARK  117  A    between atoms: _283  and  _284
REMARK  118  A    between atoms: _289  and  _291
REMARK  119  A    between atoms: _291  and  _292
REMARK  120  A    between atoms: _291  and  _294
REMARK  121  A    between atoms: _294  and  _295
REMARK  122  A    between atoms: _295  and  _296
REMARK  123  A    between atoms: _298  and  _300
REMARK  124  A    between atoms: _300  and  _301
REMARK  125  A    between atoms: _303  and  _305
REMARK  126  A    between atoms: _305  and  _306
REMARK  127  A    between atoms: _305  and  _308
REMARK  128  A    between atoms: _308  and  _309
REMARK  129  A    between atoms: _311  and  _313
REMARK  130  A    between atoms: _313  and  _314
REMARK  131  A    between atoms: _317  and  _319
REMARK  132  A    between atoms: _319  and  _320
REMARK  133  A    between atoms: _323  and  _325
REMARK  134  A    between atoms: _325  and  _326
REMARK  135  A    between atoms: _325  and  _328
REMARK  136  A    between atoms: _328  and  _329
REMARK  137  A    between atoms: _332  and  _334
REMARK  138  A    between atoms: _334  and  _335
REMARK  139  A    between atoms: _334  and  _337
REMARK  140  A    between atoms: _337  and  _338
REMARK  141  A    between atoms: _341  and  _343
REMARK  142  A    between atoms: _343  and  _344
REMARK  143  A    between atoms: _343  and  _346
REMARK  144  A    between atoms: _346  and  _347
REMARK  145  A    between atoms: _350  and  _352
REMARK  146  A    between atoms: _352  and  _353
REMARK  147  A    between atoms: _352  and  _355
REMARK  148  A    between atoms: _355  and  _356
REMARK  149  A    between atoms: _362  and  _364
REMARK  150  A    between atoms: _364  and  _365
REMARK  151  A    between atoms: _368  and  _369
REMARK  152  A    between atoms: _374  and  _376
REMARK  153  A    between atoms: _376  and  _377
REMARK  154  A    between atoms: _376  and  _379
REMARK  155  A    between atoms: _379  and  _380
REMARK  156  A    between atoms: _385  and  _386
REMARK  157  A    between atoms: _388  and  _390
REMARK  158  A    between atoms: _390  and  _391
REMARK  159  A    between atoms: _390  and  _393
REMARK  160  A    between atoms: _393  and  _394
REMARK  161  A    between atoms: _394  and  _395
REMARK  162  A    between atoms: _398  and  _400
REMARK  163  A    between atoms: _400  and  _401
REMARK  164  A    between atoms: _400  and  _403
REMARK  165  A    between atoms: _406  and  _408
REMARK  166  A    between atoms: _408  and  _409
REMARK  167  A    between atoms: _408  and  _411
REMARK  168  A    between atoms: _411  and  _412
REMARK  169  A    between atoms: _415  and  _417
REMARK  170  A    between atoms: _417  and  _418
REMARK  171  A    between atoms: _417  and  _420
REMARK  172  A    between atoms: _420  and  _421
REMARK  173  A    between atoms: _421  and  _422
REMARK  174  A    between atoms: _422  and  _423
REMARK  175  A    between atoms: _432  and  _434
REMARK  176  A    between atoms: _434  and  _435
REMARK  177  A    between atoms: _434  and  _437
REMARK  178  A    between atoms: _437  and  _438
REMARK  179  A    between atoms: _443  and  _445
REMARK  180  A    between atoms: _445  and  _446
REMARK  181  A    between atoms: _445  and  _448
REMARK  182  A    between atoms: _448  and  _449
REMARK  183  A    between atoms: _451  and  _453
REMARK  184  A    between atoms: _453  and  _454
REMARK  185  A    between atoms: _453  and  _456
REMARK  186  A    between atoms: _456  and  _457
REMARK  187  A    between atoms: _460  and  _462
REMARK  188  A    between atoms: _462  and  _463
REMARK  189  A    between atoms: _465  and  _467
REMARK  190  A    between atoms: _467  and  _468
REMARK  191  A    between atoms: _467  and  _470
REMARK  192  A    between atoms: _473  and  _475
REMARK  193  A    between atoms: _475  and  _476
REMARK  194  A    between atoms: _475  and  _478
REMARK  195  A    between atoms: _478  and  _479
REMARK  196  A    between atoms: _482  and  _484
REMARK  197  A    between atoms: _484  and  _485
REMARK  198  A    between atoms: _484  and  _487
REMARK  199  A    between atoms: _487  and  _488
REMARK  200  A    between atoms: _492  and  _493
REMARK  201  A    between atoms: _498  and  _500
REMARK  202  A    between atoms: _500  and  _501
REMARK  203  A    between atoms: _503  and  _505
REMARK  204  A    between atoms: _505  and  _506
REMARK  205  A    between atoms: _505  and  _508
REMARK  206  A    between atoms: _511  and  _513
REMARK  207  A    between atoms: _513  and  _514
REMARK  208  A    between atoms: _513  and  _516
REMARK  209  A    between atoms: _516  and  _517
REMARK  210  A    between atoms: _517  and  _518
REMARK  211  A    between atoms: _518  and  _519
REMARK  212  A    between atoms: _529  and  _530
REMARK  213  A    between atoms: _535  and  _537
REMARK  214  A    between atoms: _537  and  _538
REMARK  215  A    between atoms: _537  and  _540
REMARK  216  A    between atoms: _540  and  _541
REMARK  217  A    between atoms: _546  and  _548
REMARK  218  A    between atoms: _548  and  _549
REMARK  219  A    between atoms: _548  and  _551
REMARK  220  A    between atoms: _551  and  _552
REMARK  221  A    between atoms: _554  and  _556
REMARK  222  A    between atoms: _556  and  _557
REMARK  223  A    between atoms: _556  and  _559
REMARK  224  A    between atoms: _559  and  _560
REMARK  225  A    between atoms: _562  and  _564
REMARK  226  A    between atoms: _564  and  _565
REMARK  227  A    between atoms: _564  and  _567
REMARK  228  A    between atoms: _567  and  _568
REMARK  229  A    between atoms: _571  and  _573
REMARK  230  A    between atoms: _573  and  _574
REMARK  231  A    between atoms: _573  and  _576
REMARK  232  A    between atoms: _576  and  _577
REMARK  233  A    between atoms: _583  and  _585
REMARK  234  A    between atoms: _585  and  _586
REMARK  235  A    between atoms: _585  and  _588
REMARK  236  A    between atoms: _588  and  _589
REMARK  237  A    between atoms: _594  and  _596
REMARK  238  A    between atoms: _596  and  _597
REMARK  239  A    between atoms: _599  and  _601
REMARK  240  A    between atoms: _601  and  _602
REMARK  241  A    between atoms: _601  and  _604
REMARK  242  A    between atoms: _604  and  _605
REMARK  243  A    between atoms: _605  and  _606
REMARK  244  A    between atoms: _606  and  _607
REMARK  245  A    between atoms: _616  and  _618
REMARK  246  A    between atoms: _618  and  _619
REMARK  247  A    between atoms: _618  and  _621
REMARK  248  A    between atoms: _621  and  _622
REMARK  249  A    between atoms: _625  and  _627
REMARK  250  A    between atoms: _627  and  _628
REMARK  251  A    between atoms: _627  and  _630
REMARK  252  A    between atoms: _630  and  _631
REMARK                            x       y       z     vdW  Elec       q    Type
REMARK                         _______ _______ _______ _____ _____    ______ ____
ROOT
ATOM      1  O   HOH     1      19.754 -52.142   8.644  0.00  0.00    +0.000 OA
ENDROOT
TORSDOF 0
REMARK  Name = ../refined-set-2016/2wr8/2wr8_pocket.pdb
REMARK  252 active torsions:
REMARK  status: ('A' for Active; 'I' for Inactive)
REMARK    1  A    between atoms: _1  and  _3
REMARK    2  A    between atoms: _3  and  _4
REMARK    3  A    between atoms: _3  and  _6
REMARK    4  A    between atoms: _6  and  _7
REMARK    5  A    between atoms: _13  and  _15
REMARK    6  A    between atoms: _15  and  _16
REMARK    7  A    between atoms: _15  and  _18
REMARK    8  A    between atoms: _18  and  _19
REMARK    9  A    between atoms: _24  and  _25
REMARK   10  A    between atoms: _27  and  _29
REMARK   11  A    between atoms: _29  and  _30
REMARK   12  A    between atoms: _29  and  _32
REMARK   13  A    between atoms: _32  and  _33
REMARK   14  A    between atoms: _36  and  _38
REMARK   15  A    between atoms: _38  and  _39
REMARK   16  A    between atoms: _38  and  _41
REMARK   17  A    between atoms: _41  and  _42
REMARK   18  A    between atoms: _45  and  _47
REMARK   19  A    between atoms: _47  and  _48
REMARK   20  A    between atoms: _47  and  _50
REMARK   21  A    between atoms: _50  and  _51
REMARK   22  A    between atoms: _57  and  _59
REMARK   23  A    between atoms: _59  and  _60
REMARK   24  A    between atoms: _62  and  _64
REMARK   25  A    between atoms: _64  and  _65
REMARK   26  A    between atoms: _64  and  _67
REMARK   27  A    between atoms: _67  and  _68
REMARK   28  A    between atoms: _73  and  _75
REMARK   29  A    between atoms: _75  and  _76
REMARK   30  A    between atoms: _75  and  _78
REMARK   31  A    between atoms: _81  and  _83
REMARK   32  A    between atoms: _83  and  _84
REMARK   33  A    between atoms: _83  and  _86
REMARK   34  A    between atoms: _86  and  _87
REMARK   35  A    between atoms: _90  and  _92
REMARK   36  A    between atoms: _92  and  _93
REMARK   37  A    between atoms: _92  and  _95
REMARK   38  A    between atoms: _95  and  _96
REMARK   39  A    between atoms: _96  and  _97
REMARK   40  A    between atoms: _100  and  _102
REMARK   41  A    between atoms: _102  and  _103
REMARK   42  A    between atoms: _102  and  _105
REMARK   43  A    between atoms: _105  and  _106
REMARK   44  A    between atoms: _109  and  _111
REMARK   45  A    between atoms: _111  and  _112
REMARK   46  A    between atoms: _111  and  _114
REMARK   47  A    between atoms: _114  and  _115
REMARK   48  A    between atoms: _120  and  _121
REMARK   49  A    between atoms: _123  and  _125
REMARK   50  A    between atoms: _125  and  _126
REMARK   51  A    between atoms: _128  and  _130
REMARK   52  A    between atoms: _130  and  _131
REMARK   53  A    between atoms: _130  and  _133
REMARK   54  A    between atoms: _133  and  _134
REMARK   55  A    between atoms: _137  and  _139
REMARK   56  A    between atoms: _139  and  _140
REMARK   57  A    between atoms: _139  and  _142
REMARK   58  A    between atoms: _145  and  _147
REMARK   59  A    between atoms: _147  and  _148
REMARK   60  A    between atoms: _147  and  _150
REMARK   61  A    between atoms: _150  and  _151
REMARK   62  A    between atoms: _151  and  _152
REMARK   63  A    between atoms: _152  and  _153
REMARK   64  A    between atoms: _153  and  _154
REMARK   65  A    between atoms: _158  and  _160
REMARK   66  A    between atoms: _160  and  _161
REMARK   67  A    between atoms: _163  and  _165
REMARK   68  A    between atoms: _165  and  _166
REMARK   69  A    between atoms: _165  and  _168
REMARK   70  A    between atoms: _168  and  _169
REMARK   71  A    between atoms: _169  and  _170
REMARK   72  A    between atoms: _173  and  _175
REMARK   73  A    between atoms: _175  and  _176
REMARK   74  A    between atoms: _175  and  _178
REMARK   75  A    between atoms: _178  and  _179
REMARK   76  A    between atoms: _182  and  _184
REMARK   77  A    between atoms: _184  and  _185
REMARK   78  A    between atoms: _184  and  _187
REMARK   79  A    between atoms: _187  and  _188
REMARK   80  A    between atoms: _192  and  _193
REMARK   81  A    between atoms: _198  and  _200
REMARK   82  A    between atoms: _200  and  _201
REMARK   83  A    between atoms: _203  and  _205
REMARK   84  A    between atoms: _205  and  _206
REMARK   85  A    between atoms: _205  and  _208
REMARK   86  A    between atoms: _208  and  _209
REMARK   87  A    between atoms: _211  and  _213
REMARK   88  A    between atoms: _213  and  _214
REMARK   89  A    between atoms: _213  and  _216
REMARK   90  A    between atoms: _216  and  _217
REMARK   91  A    between atoms: _222  and  _224
REMARK   92  A    between atoms: _224  and  _225
REMARK   93  A    between atoms: _224  and  _227
REMARK   94  A    between atoms: _227  and  _228
REMARK   95  A    between atoms: _231  and  _233
REMARK   96  A    between atoms: _233  and  _234
REMARK   97  A    between atoms: _233  and  _236
REMARK   98  A    between atoms: _236  and  _237
REMARK   99  A    between atoms: _242  and  _243
REMARK  100  A    between atoms: _245  and  _247
REMARK  101  A    between atoms: _247  and  _248
REMARK  102  A    between atoms: _247  and  _250
REMARK  103  A    between atoms: _250  and  _251
REMARK  104  A    between atoms: _251  and  _252
REMARK  105  A    between atoms: _255  and  _257
REMARK  106  A    between atoms: _257  and  _258
REMARK  107  A    between atoms: _257  and  _260
REMARK  108  A    between atoms: _260  and  _261
REMARK  109  A    between atoms: _264  and  _266
REMARK  110  A    between atoms: _266  and  _267
REMARK  111  A    between atoms: _270  and  _272
REMARK  112  A    between atoms: _272  and  _273
REMARK  113  A    between atoms: _272  and  _275
REMARK  114  A    between atoms: _278  and  _280
REMARK  115  A    between atoms: _280  and  _281
REMARK  116  A    between atoms: _280  and  _283
REMARK  117  A    between atoms: _283  and  _284
REMARK  118  A    between atoms: _289  and  _291
REMARK  119  A    between atoms: _291  and  _292
REMARK  120  A    between atoms: _291  and  _294
REMARK  121  A    between atoms: _294  and  _295
REMARK  122  A    between atoms: _295  and  _296
REMARK  123  A    between atoms: _298  and  _300
REMARK  124  A    between atoms: _300  and  _301
REMARK  125  A    between atoms: _303  and  _305
REMARK  126  A    between atoms: _305  and  _306
REMARK  127  A    between atoms: _305  and  _308
REMARK  128  A    between atoms: _308  and  _309
REMARK  129  A    between atoms: _311  and  _313
REMARK  130  A    between atoms: _313  and  _314
REMARK  131  A    between atoms: _317  and  _319
REMARK  132  A    between atoms: _319  and  _320
REMARK  133  A    between atoms: _323  and  _325
REMARK  134  A    between atoms: _325  and  _326
REMARK  135  A    between atoms: _325  and  _328
REMARK  136  A    between atoms: _328  and  _329
REMARK  137  A    between atoms: _332  and  _334
REMARK  138  A    between atoms: _334  and  _335
REMARK  139  A    between atoms: _334  and  _337
REMARK  140  A    between atoms: _337  and  _338
REMARK  141  A    between atoms: _341  and  _343
REMARK  142  A    between atoms: _343  and  _344
REMARK  143  A    between atoms: _343  and  _346
REMARK  144  A    between atoms: _346  and  _347
REMARK  145  A    between atoms: _350  and  _352
REMARK  146  A    between atoms: _352  and  _353
REMARK  147  A    between atoms: _352  and  _355
REMARK  148  A    between atoms: _355  and  _356
REMARK  149  A    between atoms: _362  and  _364
REMARK  150  A    between atoms: _364  and  _365
REMARK  151  A    between atoms: _368  and  _369
REMARK  152  A    between atoms: _374  and  _376
REMARK  153  A    between atoms: _376  and  _377
REMARK  154  A    between atoms: _376  and  _379
REMARK  155  A    between atoms: _379  and  _380
REMARK  156  A    between atoms: _385  and  _386
REMARK  157  A    between atoms: _388  and  _390
REMARK  158  A    between atoms: _390  and  _391
REMARK  159  A    between atoms: _390  and  _393
REMARK  160  A    between atoms: _393  and  _394
REMARK  161  A    between atoms: _394  and  _395
REMARK  162  A    between atoms: _398  and  _400
REMARK  163  A    between atoms: _400  and  _401
REMARK  164  A    between atoms: _400  and  _403
REMARK  165  A    between atoms: _406  and  _408
REMARK  166  A    between atoms: _408  and  _409
REMARK  167  A    between atoms: _408  and  _411
REMARK  168  A    between atoms: _411  and  _412
REMARK  169  A    between atoms: _415  and  _417
REMARK  170  A    between atoms: _417  and  _418
REMARK  171  A    between atoms: _417  and  _420
REMARK  172  A    between atoms: _420  and  _421
REMARK  173  A    between atoms: _421  and  _422
REMARK  174  A    between atoms: _422  and  _423
REMARK  175  A    between atoms: _432  and  _434
REMARK  176  A    between atoms: _434  and  _435
REMARK  177  A    between atoms: _434  and  _437
REMARK  178  A    between atoms: _437  and  _438
REMARK  179  A    between atoms: _443  and  _445
REMARK  180  A    between atoms: _445  and  _446
REMARK  181  A    between atoms: _445  and  _448
REMARK  182  A    between atoms: _448  and  _449
REMARK  183  A    between atoms: _451  and  _453
REMARK  184  A    between atoms: _453  and  _454
REMARK  185  A    between atoms: _453  and  _456
REMARK  186  A    between atoms: _456  and  _457
REMARK  187  A    between atoms: _460  and  _462
REMARK  188  A    between atoms: _462  and  _463
REMARK  189  A    between atoms: _465  and  _467
REMARK  190  A    between atoms: _467  and  _468
REMARK  191  A    between atoms: _467  and  _470
REMARK  192  A    between atoms: _473  and  _475
REMARK  193  A    between atoms: _475  and  _476
REMARK  194  A    between atoms: _475  and  _478
REMARK  195  A    between atoms: _478  and  _479
REMARK  196  A    between atoms: _482  and  _484
REMARK  197  A    between atoms: _484  and  _485
REMARK  198  A    between atoms: _484  and  _487
REMARK  199  A    between atoms: _487  and  _488
REMARK  200  A    between atoms: _492  and  _493
REMARK  201  A    between atoms: _498  and  _500
REMARK  202  A    between atoms: _500  and  _501
REMARK  203  A    between atoms: _503  and  _505
REMARK  204  A    between atoms: _505  and  _506
REMARK  205  A    between atoms: _505  and  _508
REMARK  206  A    between atoms: _511  and  _513
REMARK  207  A    between atoms: _513  and  _514
REMARK  208  A    between atoms: _513  and  _516
REMARK  209  A    between atoms: _516  and  _517
REMARK  210  A    between atoms: _517  and  _518
REMARK  211  A    between atoms: _518  and  _519
REMARK  212  A    between atoms: _529  and  _530
REMARK  213  A    between atoms: _535  and  _537
REMARK  214  A    between atoms: _537  and  _538
REMARK  215  A    between atoms: _537  and  _540
REMARK  216  A    between atoms: _540  and  _541
REMARK  217  A    between atoms: _546  and  _548
REMARK  218  A    between atoms: _548  and  _549
REMARK  219  A    between atoms: _548  and  _551
REMARK  220  A    between atoms: _551  and  _552
REMARK  221  A    between atoms: _554  and  _556
REMARK  222  A    between atoms: _556  and  _557
REMARK  223  A    between atoms: _556  and  _559
REMARK  224  A    between atoms: _559  and  _560
REMARK  225  A    between atoms: _562  and  _564
REMARK  226  A    between atoms: _564  and  _565
REMARK  227  A    between atoms: _564  and  _567
REMARK  228  A    between atoms: _567  and  _568
REMARK  229  A    between atoms: _571  and  _573
REMARK  230  A    between atoms: _573  and  _574
REMARK  231  A    between atoms: _573  and  _576
REMARK  232  A    between atoms: _576  and  _577
REMARK  233  A    between atoms: _583  and  _585
REMARK  234  A    between atoms: _585  and  _586
REMARK  235  A    between atoms: _585  and  _588
REMARK  236  A    between atoms: _588  and  _589
REMARK  237  A    between atoms: _594  and  _596
REMARK  238  A    between atoms: _596  and  _597
REMARK  239  A    between atoms: _599  and  _601
REMARK  240  A    between atoms: _601  and  _602
REMARK  241  A    between atoms: _601  and  _604
REMARK  242  A    between atoms: _604  and  _605
REMARK  243  A    between atoms: _605  and  _606
REMARK  244  A    between atoms: _606  and  _607
REMARK  245  A    between atoms: _616  and  _618
REMARK  246  A    between atoms: _618  and  _619
REMARK  247  A    between atoms: _618  and  _621
REMARK  248  A    between atoms: _621  and  _622
REMARK  249  A    between atoms: _625  and  _627
REMARK  250  A    between atoms: _627  and  _628
REMARK  251  A    between atoms: _627  and  _630
REMARK  252  A    between atoms: _630  and  _631
REMARK                            x       y       z     vdW  Elec       q    Type
REMARK                         _______ _______ _______ _____ _____    ______ ____
ROOT
ATOM      1  O   HOH     1      21.396 -44.500   2.548  0.00  0.00    +0.000 OA
ENDROOT
TORSDOF 0
REMARK  Name = ../refined-set-2016/2wr8/2wr8_pocket.pdb
REMARK  252 active torsions:
REMARK  status: ('A' for Active; 'I' for Inactive)
REMARK    1  A    between atoms: _1  and  _3
REMARK    2  A    between atoms: _3  and  _4
REMARK    3  A    between atoms: _3  and  _6
REMARK    4  A    between atoms: _6  and  _7
REMARK    5  A    between atoms: _13  and  _15
REMARK    6  A    between atoms: _15  and  _16
REMARK    7  A    between atoms: _15  and  _18
REMARK    8  A    between atoms: _18  and  _19
REMARK    9  A    between atoms: _24  and  _25
REMARK   10  A    between atoms: _27  and  _29
REMARK   11  A    between atoms: _29  and  _30
REMARK   12  A    between atoms: _29  and  _32
REMARK   13  A    between atoms: _32  and  _33
REMARK   14  A    between atoms: _36  and  _38
REMARK   15  A    between atoms: _38  and  _39
REMARK   16  A    between atoms: _38  and  _41
REMARK   17  A    between atoms: _41  and  _42
REMARK   18  A    between atoms: _45  and  _47
REMARK   19  A    between atoms: _47  and  _48
REMARK   20  A    between atoms: _47  and  _50
REMARK   21  A    between atoms: _50  and  _51
REMARK   22  A    between atoms: _57  and  _59
REMARK   23  A    between atoms: _59  and  _60
REMARK   24  A    between atoms: _62  and  _64
REMARK   25  A    between atoms: _64  and  _65
REMARK   26  A    between atoms: _64  and  _67
REMARK   27  A    between atoms: _67  and  _68
REMARK   28  A    between atoms: _73  and  _75
REMARK   29  A    between atoms: _75  and  _76
REMARK   30  A    between atoms: _75  and  _78
REMARK   31  A    between atoms: _81  and  _83
REMARK   32  A    between atoms: _83  and  _84
REMARK   33  A    between atoms: _83  and  _86
REMARK   34  A    between atoms: _86  and  _87
REMARK   35  A    between atoms: _90  and  _92
REMARK   36  A    between atoms: _92  and  _93
REMARK   37  A    between atoms: _92  and  _95
REMARK   38  A    between atoms: _95  and  _96
REMARK   39  A    between atoms: _96  and  _97
REMARK   40  A    between atoms: _100  and  _102
REMARK   41  A    between atoms: _102  and  _103
REMARK   42  A    between atoms: _102  and  _105
REMARK   43  A    between atoms: _105  and  _106
REMARK   44  A    between atoms: _109  and  _111
REMARK   45  A    between atoms: _111  and  _112
REMARK   46  A    between atoms: _111  and  _114
REMARK   47  A    between atoms: _114  and  _115
REMARK   48  A    between atoms: _120  and  _121
REMARK   49  A    between atoms: _123  and  _125
REMARK   50  A    between atoms: _125  and  _126
REMARK   51  A    between atoms: _128  and  _130
REMARK   52  A    between atoms: _130  and  _131
REMARK   53  A    between atoms: _130  and  _133
REMARK   54  A    between atoms: _133  and  _134
REMARK   55  A    between atoms: _137  and  _139
REMARK   56  A    between atoms: _139  and  _140
REMARK   57  A    between atoms: _139  and  _142
REMARK   58  A    between atoms: _145  and  _147
REMARK   59  A    between atoms: _147  and  _148
REMARK   60  A    between atoms: _147  and  _150
REMARK   61  A    between atoms: _150  and  _151
REMARK   62  A    between atoms: _151  and  _152
REMARK   63  A    between atoms: _152  and  _153
REMARK   64  A    between atoms: _153  and  _154
REMARK   65  A    between atoms: _158  and  _160
REMARK   66  A    between atoms: _160  and  _161
REMARK   67  A    between atoms: _163  and  _165
REMARK   68  A    between atoms: _165  and  _166
REMARK   69  A    between atoms: _165  and  _168
REMARK   70  A    between atoms: _168  and  _169
REMARK   71  A    between atoms: _169  and  _170
REMARK   72  A    between atoms: _173  and  _175
REMARK   73  A    between atoms: _175  and  _176
REMARK   74  A    between atoms: _175  and  _178
REMARK   75  A    between atoms: _178  and  _179
REMARK   76  A    between atoms: _182  and  _184
REMARK   77  A    between atoms: _184  and  _185
REMARK   78  A    between atoms: _184  and  _187
REMARK   79  A    between atoms: _187  and  _188
REMARK   80  A    between atoms: _192  and  _193
REMARK   81  A    between atoms: _198  and  _200
REMARK   82  A    between atoms: _200  and  _201
REMARK   83  A    between atoms: _203  and  _205
REMARK   84  A    between atoms: _205  and  _206
REMARK   85  A    between atoms: _205  and  _208
REMARK   86  A    between atoms: _208  and  _209
REMARK   87  A    between atoms: _211  and  _213
REMARK   88  A    between atoms: _213  and  _214
REMARK   89  A    between atoms: _213  and  _216
REMARK   90  A    between atoms: _216  and  _217
REMARK   91  A    between atoms: _222  and  _224
REMARK   92  A    between atoms: _224  and  _225
REMARK   93  A    between atoms: _224  and  _227
REMARK   94  A    between atoms: _227  and  _228
REMARK   95  A    between atoms: _231  and  _233
REMARK   96  A    between atoms: _233  and  _234
REMARK   97  A    between atoms: _233  and  _236
REMARK   98  A    between atoms: _236  and  _237
REMARK   99  A    between atoms: _242  and  _243
REMARK  100  A    between atoms: _245  and  _247
REMARK  101  A    between atoms: _247  and  _248
REMARK  102  A    between atoms: _247  and  _250
REMARK  103  A    between atoms: _250  and  _251
REMARK  104  A    between atoms: _251  and  _252
REMARK  105  A    between atoms: _255  and  _257
REMARK  106  A    between atoms: _257  and  _258
REMARK  107  A    between atoms: _257  and  _260
REMARK  108  A    between atoms: _260  and  _261
REMARK  109  A    between atoms: _264  and  _266
REMARK  110  A    between atoms: _266  and  _267
REMARK  111  A    between atoms: _270  and  _272
REMARK  112  A    between atoms: _272  and  _273
REMARK  113  A    between atoms: _272  and  _275
REMARK  114  A    between atoms: _278  and  _280
REMARK  115  A    between atoms: _280  and  _281
REMARK  116  A    between atoms: _280  and  _283
REMARK  117  A    between atoms: _283  and  _284
REMARK  118  A    between atoms: _289  and  _291
REMARK  119  A    between atoms: _291  and  _292
REMARK  120  A    between atoms: _291  and  _294
REMARK  121  A    between atoms: _294  and  _295
REMARK  122  A    between atoms: _295  and  _296
REMARK  123  A    between atoms: _298  and  _300
REMARK  124  A    between atoms: _300  and  _301
REMARK  125  A    between atoms: _303  and  _305
REMARK  126  A    between atoms: _305  and  _306
REMARK  127  A    between atoms: _305  and  _308
REMARK  128  A    between atoms: _308  and  _309
REMARK  129  A    between atoms: _311  and  _313
REMARK  130  A    between atoms: _313  and  _314
REMARK  131  A    between atoms: _317  and  _319
REMARK  132  A    between atoms: _319  and  _320
REMARK  133  A    between atoms: _323  and  _325
REMARK  134  A    between atoms: _325  and  _326
REMARK  135  A    between atoms: _325  and  _328
REMARK  136  A    between atoms: _328  and  _329
REMARK  137  A    between atoms: _332  and  _334
REMARK  138  A    between atoms: _334  and  _335
REMARK  139  A    between atoms: _334  and  _337
REMARK  140  A    between atoms: _337  and  _338
REMARK  141  A    between atoms: _341  and  _343
REMARK  142  A    between atoms: _343  and  _344
REMARK  143  A    between atoms: _343  and  _346
REMARK  144  A    between atoms: _346  and  _347
REMARK  145  A    between atoms: _350  and  _352
REMARK  146  A    between atoms: _352  and  _353
REMARK  147  A    between atoms: _352  and  _355
REMARK  148  A    between atoms: _355  and  _356
REMARK  149  A    between atoms: _362  and  _364
REMARK  150  A    between atoms: _364  and  _365
REMARK  151  A    between atoms: _368  and  _369
REMARK  152  A    between atoms: _374  and  _376
REMARK  153  A    between atoms: _376  and  _377
REMARK  154  A    between atoms: _376  and  _379
REMARK  155  A    between atoms: _379  and  _380
REMARK  156  A    between atoms: _385  and  _386
REMARK  157  A    between atoms: _388  and  _390
REMARK  158  A    between atoms: _390  and  _391
REMARK  159  A    between atoms: _390  and  _393
REMARK  160  A    between atoms: _393  and  _394
REMARK  161  A    between atoms: _394  and  _395
REMARK  162  A    between atoms: _398  and  _400
REMARK  163  A    between atoms: _400  and  _401
REMARK  164  A    between atoms: _400  and  _403
REMARK  165  A    between atoms: _406  and  _408
REMARK  166  A    between atoms: _408  and  _409
REMARK  167  A    between atoms: _408  and  _411
REMARK  168  A    between atoms: _411  and  _412
REMARK  169  A    between atoms: _415  and  _417
REMARK  170  A    between atoms: _417  and  _418
REMARK  171  A    between atoms: _417  and  _420
REMARK  172  A    between atoms: _420  and  _421
REMARK  173  A    between atoms: _421  and  _422
REMARK  174  A    between atoms: _422  and  _423
REMARK  175  A    between atoms: _432  and  _434
REMARK  176  A    between atoms: _434  and  _435
REMARK  177  A    between atoms: _434  and  _437
REMARK  178  A    between atoms: _437  and  _438
REMARK  179  A    between atoms: _443  and  _445
REMARK  180  A    between atoms: _445  and  _446
REMARK  181  A    between atoms: _445  and  _448
REMARK  182  A    between atoms: _448  and  _449
REMARK  183  A    between atoms: _451  and  _453
REMARK  184  A    between atoms: _453  and  _454
REMARK  185  A    between atoms: _453  and  _456
REMARK  186  A    between atoms: _456  and  _457
REMARK  187  A    between atoms: _460  and  _462
REMARK  188  A    between atoms: _462  and  _463
REMARK  189  A    between atoms: _465  and  _467
REMARK  190  A    between atoms: _467  and  _468
REMARK  191  A    between atoms: _467  and  _470
REMARK  192  A    between atoms: _473  and  _475
REMARK  193  A    between atoms: _475  and  _476
REMARK  194  A    between atoms: _475  and  _478
REMARK  195  A    between atoms: _478  and  _479
REMARK  196  A    between atoms: _482  and  _484
REMARK  197  A    between atoms: _484  and  _485
REMARK  198  A    between atoms: _484  and  _487
REMARK  199  A    between atoms: _487  and  _488
REMARK  200  A    between atoms: _492  and  _493
REMARK  201  A    between atoms: _498  and  _500
REMARK  202  A    between atoms: _500  and  _501
REMARK  203  A    between atoms: _503  and  _505
REMARK  204  A    between atoms: _505  and  _506
REMARK  205  A    between atoms: _505  and  _508
REMARK  206  A    between atoms: _511  and  _513
REMARK  207  A    between atoms: _513  and  _514
REMARK  208  A    between atoms: _513  and  _516
REMARK  209  A    between atoms: _516  and  _517
REMARK  210  A    between atoms: _517  and  _518
REMARK  211  A    between atoms: _518  and  _519
REMARK  212  A    between atoms: _529  and  _530
REMARK  213  A    between atoms: _535  and  _537
REMARK  214  A    between atoms: _537  and  _538
REMARK  215  A    between atoms: _537  and  _540
REMARK  216  A    between atoms: _540  and  _541
REMARK  217  A    between atoms: _546  and  _548
REMARK  218  A    between atoms: _548  and  _549
REMARK  219  A    between atoms: _548  and  _551
REMARK  220  A    between atoms: _551  and  _552
REMARK  221  A    between atoms: _554  and  _556
REMARK  222  A    between atoms: _556  and  _557
REMARK  223  A    between atoms: _556  and  _559
REMARK  224  A    between atoms: _559  and  _560
REMARK  225  A    between atoms: _562  and  _564
REMARK  226  A    between atoms: _564  and  _565
REMARK  227  A    between atoms: _564  and  _567
REMARK  228  A    between atoms: _567  and  _568
REMARK  229  A    between atoms: _571  and  _573
REMARK  230  A    between atoms: _573  and  _574
REMARK  231  A    between atoms: _573  and  _576
REMARK  232  A    between atoms: _576  and  _577
REMARK  233  A    between atoms: _583  and  _585
REMARK  234  A    between atoms: _585  and  _586
REMARK  235  A    between atoms: _585  and  _588
REMARK  236  A    between atoms: _588  and  _589
REMARK  237  A    between atoms: _594  and  _596
REMARK  238  A    between atoms: _596  and  _597
REMARK  239  A    between atoms: _599  and  _601
REMARK  240  A    between atoms: _601  and  _602
REMARK  241  A    between atoms: _601  and  _604
REMARK  242  A    between atoms: _604  and  _605
REMARK  243  A    between atoms: _605  and  _606
REMARK  244  A    between atoms: _606  and  _607
REMARK  245  A    between atoms: _616  and  _618
REMARK  246  A    between atoms: _618  and  _619
REMARK  247  A    between atoms: _618  and  _621
REMARK  248  A    between atoms: _621  and  _622
REMARK  249  A    between atoms: _625  and  _627
REMARK  250  A    between atoms: _627  and  _628
REMARK  251  A    between atoms: _627  and  _630
REMARK  252  A    between atoms: _630  and  _631
REMARK                            x       y       z     vdW  Elec       q    Type
REMARK                         _______ _______ _______ _____ _____    ______ ____
ROOT
ATOM      1  O   HOH     1      14.912 -47.258   1.055  0.00  0.00    +0.000 OA
ENDROOT
TORSDOF 0
