REMARK  Name = ../refined-set-2016/4n7u/4n7u_pocket.pdb
REMARK  109 active torsions:
REMARK  status: ('A' for Active; 'I' for Inactive)
REMARK    1  A    between atoms: _1  and  _3
REMARK    2  A    between atoms: _3  and  _4
REMARK    3  A    between atoms: _3  and  _6
REMARK    4  A    between atoms: _6  and  _7
REMARK    5  A    between atoms: _7  and  _8
REMARK    6  A    between atoms: _8  and  _9
REMARK    7  A    between atoms: _18  and  _20
REMARK    8  A    between atoms: _20  and  _21
REMARK    9  A    between atoms: _20  and  _23
REMARK   10  A    between atoms: _23  and  _24
REMARK   11  A    between atoms: _34  and  _36
REMARK   12  A    between atoms: _36  and  _37
REMARK   13  A    between atoms: _36  and  _39
REMARK   14  A    between atoms: _39  and  _40
REMARK   15  A    between atoms: _45  and  _47
REMARK   16  A    between atoms: _47  and  _48
REMARK   17  A    between atoms: _47  and  _50
REMARK   18  A    between atoms: _50  and  _51
REMARK   19  A    between atoms: _56  and  _57
REMARK   20  A    between atoms: _59  and  _61
REMARK   21  A    between atoms: _61  and  _62
REMARK   22  A    between atoms: _61  and  _64
REMARK   23  A    between atoms: _64  and  _65
REMARK   24  A    between atoms: _65  and  _66
REMARK   25  A    between atoms: _69  and  _71
REMARK   26  A    between atoms: _71  and  _72
REMARK   27  A    between atoms: _71  and  _74
REMARK   28  A    between atoms: _74  and  _75
REMARK   29  A    between atoms: _85  and  _87
REMARK   30  A    between atoms: _87  and  _88
REMARK   31  A    between atoms: _87  and  _90
REMARK   32  A    between atoms: _90  and  _91
REMARK   33  A    between atoms: _96  and  _98
REMARK   34  A    between atoms: _98  and  _99
REMARK   35  A    between atoms: _98  and  _101
REMARK   36  A    between atoms: _101  and  _102
REMARK   37  A    between atoms: _112  and  _114
REMARK   38  A    between atoms: _114  and  _115
REMARK   39  A    between atoms: _114  and  _117
REMARK   40  A    between atoms: _120  and  _122
REMARK   41  A    between atoms: _122  and  _123
REMARK   42  A    between atoms: _122  and  _125
REMARK   43  A    between atoms: _125  and  _126
REMARK   44  A    between atoms: _126  and  _127
REMARK   45  A    between atoms: _127  and  _128
REMARK   46  A    between atoms: _128  and  _129
REMARK   47  A    between atoms: _133  and  _135
REMARK   48  A    between atoms: _135  and  _136
REMARK   49  A    between atoms: _135  and  _138
REMARK   50  A    between atoms: _138  and  _139
REMARK   51  A    between atoms: _139  and  _140
REMARK   52  A    between atoms: _142  and  _144
REMARK   53  A    between atoms: _144  and  _145
REMARK   54  A    between atoms: _144  and  _147
REMARK   55  A    between atoms: _147  and  _148
REMARK   56  A    between atoms: _151  and  _153
REMARK   57  A    between atoms: _153  and  _154
REMARK   58  A    between atoms: _153  and  _156
REMARK   59  A    between atoms: _156  and  _157
REMARK   60  A    between atoms: _160  and  _162
REMARK   61  A    between atoms: _162  and  _163
REMARK   62  A    between atoms: _162  and  _165
REMARK   63  A    between atoms: _165  and  _166
REMARK   64  A    between atoms: _169  and  _171
REMARK   65  A    between atoms: _171  and  _172
REMARK   66  A    between atoms: _171  and  _174
REMARK   67  A    between atoms: _174  and  _175
REMARK   68  A    between atoms: _178  and  _180
REMARK   69  A    between atoms: _180  and  _181
REMARK   70  A    between atoms: _180  and  _183
REMARK   71  A    between atoms: _183  and  _184
REMARK   72  A    between atoms: _184  and  _185
REMARK   73  A    between atoms: _185  and  _186
REMARK   74  A    between atoms: _195  and  _197
REMARK   75  A    between atoms: _197  and  _198
REMARK   76  A    between atoms: _197  and  _200
REMARK   77  A    between atoms: _200  and  _201
REMARK   78  A    between atoms: _204  and  _206
REMARK   79  A    between atoms: _206  and  _207
REMARK   80  A    between atoms: _206  and  _209
REMARK   81  A    between atoms: _209  and  _210
REMARK   82  A    between atoms: _213  and  _215
REMARK   83  A    between atoms: _215  and  _216
REMARK   84  A    between atoms: _215  and  _218
REMARK   85  A    between atoms: _218  and  _219
REMARK   86  A    between atoms: _222  and  _224
REMARK   87  A    between atoms: _224  and  _225
REMARK   88  A    between atoms: _224  and  _227
REMARK   89  A    between atoms: _227  and  _228
REMARK   90  A    between atoms: _228  and  _229
REMARK   91  A    between atoms: _229  and  _230
REMARK   92  A    between atoms: _239  and  _241
REMARK   93  A    between atoms: _241  and  _242
REMARK   94  A    between atoms: _241  and  _244
REMARK   95  A    between atoms: _244  and  _245
REMARK   96  A    between atoms: _248  and  _250
REMARK   97  A    between atoms: _250  and  _251
REMARK   98  A    between atoms: _250  and  _253
REMARK   99  A    between atoms: _253  and  _254
REMARK  100  A    between atoms: _254  and  _255
REMARK  101  A    between atoms: _255  and  _256
REMARK  102  A    between atoms: _265  and  _267
REMARK  103  A    between atoms: _267  and  _268
REMARK  104  A    between atoms: _267  and  _270
REMARK  105  A    between atoms: _270  and  _271
REMARK  106  A    between atoms: _274  and  _276
REMARK  107  A    between atoms: _276  and  _277
REMARK  108  A    between atoms: _276  and  _279
REMARK  109  A    between atoms: _279  and  _280
REMARK                            x       y       z     vdW  Elec       q    Type
REMARK                         _______ _______ _______ _____ _____    ______ ____
ROOT
ATOM      1  NE  ARG A   1      24.437   9.323 156.999  0.00  0.00    -0.265 N 
ATOM      2  HE  ARG A   1      24.173   9.943 157.791  0.00  0.00    +0.259 HD
ATOM      3  CZ  ARG A   1      25.415   8.444 157.195  0.00  0.00    +0.342 C 
ATOM      4  NH2 ARG A   1      26.023   8.369 158.371  0.00  0.00    -0.292 N 
ATOM      5 HH21 ARG A   1      25.736   9.000 159.146  0.00  0.00    +0.255 HD
ATOM      6 HH22 ARG A   1      26.787   7.679 158.518  0.00  0.00    +0.255 HD
ATOM      7  NH1 ARG A   1      25.787   7.639 156.210  0.00  0.00    -0.292 N 
ATOM      8 HH11 ARG A   1      26.552   6.951 156.362  0.00  0.00    +0.255 HD
ATOM      9 HH12 ARG A   1      25.314   7.696 155.285  0.00  0.00    +0.255 HD
ENDROOT
BRANCH   1  10
ATOM     10  CD  ARG A   1      23.709   9.473 155.741  0.00  0.00    +0.174 C 
BRANCH  10  11
ATOM     11  CG  ARG A   1      22.698  10.603 155.799  0.00  0.00    +0.045 C 
BRANCH  11  12
ATOM     12  CB  ARG A   1      23.378  11.958 155.730  0.00  0.00    +0.029 C 
BRANCH  12  13
ATOM     13  CA  ARG A   1      22.622  13.059 156.474  0.00  0.00    +0.133 C 
BRANCH  13  14
ATOM     14  N   ARG A   1      22.532  14.262 155.662  0.00  0.00    -0.239 NA
ATOM     15  H   ARG A   1      23.390  14.636 155.208  0.00  0.00    +0.142 HD
ENDBRANCH  13  14
BRANCH  13  16
ATOM     16  C   ARG A   1      23.325  13.379 157.786  0.00  0.00    +0.224 C 
ATOM     17  O   ARG A   1      24.235  14.207 157.825  0.00  0.00    -0.287 OA
ENDBRANCH  13  16
ENDBRANCH  12  13
ENDBRANCH  11  12
ENDBRANCH  10  11
ENDBRANCH   1  10
TORSDOF 6
REMARK  Name = ../refined-set-2016/4n7u/4n7u_pocket.pdb
REMARK  109 active torsions:
REMARK  status: ('A' for Active; 'I' for Inactive)
REMARK    1  A    between atoms: _1  and  _3
REMARK    2  A    between atoms: _3  and  _4
REMARK    3  A    between atoms: _3  and  _6
REMARK    4  A    between atoms: _6  and  _7
REMARK    5  A    between atoms: _7  and  _8
REMARK    6  A    between atoms: _8  and  _9
REMARK    7  A    between atoms: _18  and  _20
REMARK    8  A    between atoms: _20  and  _21
REMARK    9  A    between atoms: _20  and  _23
REMARK   10  A    between atoms: _23  and  _24
REMARK   11  A    between atoms: _34  and  _36
REMARK   12  A    between atoms: _36  and  _37
REMARK   13  A    between atoms: _36  and  _39
REMARK   14  A    between atoms: _39  and  _40
REMARK   15  A    between atoms: _45  and  _47
REMARK   16  A    between atoms: _47  and  _48
REMARK   17  A    between atoms: _47  and  _50
REMARK   18  A    between atoms: _50  and  _51
REMARK   19  A    between atoms: _56  and  _57
REMARK   20  A    between atoms: _59  and  _61
REMARK   21  A    between atoms: _61  and  _62
REMARK   22  A    between atoms: _61  and  _64
REMARK   23  A    between atoms: _64  and  _65
REMARK   24  A    between atoms: _65  and  _66
REMARK   25  A    between atoms: _69  and  _71
REMARK   26  A    between atoms: _71  and  _72
REMARK   27  A    between atoms: _71  and  _74
REMARK   28  A    between atoms: _74  and  _75
REMARK   29  A    between atoms: _85  and  _87
REMARK   30  A    between atoms: _87  and  _88
REMARK   31  A    between atoms: _87  and  _90
REMARK   32  A    between atoms: _90  and  _91
REMARK   33  A    between atoms: _96  and  _98
REMARK   34  A    between atoms: _98  and  _99
REMARK   35  A    between atoms: _98  and  _101
REMARK   36  A    between atoms: _101  and  _102
REMARK   37  A    between atoms: _112  and  _114
REMARK   38  A    between atoms: _114  and  _115
REMARK   39  A    between atoms: _114  and  _117
REMARK   40  A    between atoms: _120  and  _122
REMARK   41  A    between atoms: _122  and  _123
REMARK   42  A    between atoms: _122  and  _125
REMARK   43  A    between atoms: _125  and  _126
REMARK   44  A    between atoms: _126  and  _127
REMARK   45  A    between atoms: _127  and  _128
REMARK   46  A    between atoms: _128  and  _129
REMARK   47  A    between atoms: _133  and  _135
REMARK   48  A    between atoms: _135  and  _136
REMARK   49  A    between atoms: _135  and  _138
REMARK   50  A    between atoms: _138  and  _139
REMARK   51  A    between atoms: _139  and  _140
REMARK   52  A    between atoms: _142  and  _144
REMARK   53  A    between atoms: _144  and  _145
REMARK   54  A    between atoms: _144  and  _147
REMARK   55  A    between atoms: _147  and  _148
REMARK   56  A    between atoms: _151  and  _153
REMARK   57  A    between atoms: _153  and  _154
REMARK   58  A    between atoms: _153  and  _156
REMARK   59  A    between atoms: _156  and  _157
REMARK   60  A    between atoms: _160  and  _162
REMARK   61  A    between atoms: _162  and  _163
REMARK   62  A    between atoms: _162  and  _165
REMARK   63  A    between atoms: _165  and  _166
REMARK   64  A    between atoms: _169  and  _171
REMARK   65  A    between atoms: _171  and  _172
REMARK   66  A    between atoms: _171  and  _174
REMARK   67  A    between atoms: _174  and  _175
REMARK   68  A    between atoms: _178  and  _180
REMARK   69  A    between atoms: _180  and  _181
REMARK   70  A    between atoms: _180  and  _183
REMARK   71  A    between atoms: _183  and  _184
REMARK   72  A    between atoms: _184  and  _185
REMARK   73  A    between atoms: _185  and  _186
REMARK   74  A    between atoms: _195  and  _197
REMARK   75  A    between atoms: _197  and  _198
REMARK   76  A    between atoms: _197  and  _200
REMARK   77  A    between atoms: _200  and  _201
REMARK   78  A    between atoms: _204  and  _206
REMARK   79  A    between atoms: _206  and  _207
REMARK   80  A    between atoms: _206  and  _209
REMARK   81  A    between atoms: _209  and  _210
REMARK   82  A    between atoms: _213  and  _215
REMARK   83  A    between atoms: _215  and  _216
REMARK   84  A    between atoms: _215  and  _218
REMARK   85  A    between atoms: _218  and  _219
REMARK   86  A    between atoms: _222  and  _224
REMARK   87  A    between atoms: _224  and  _225
REMARK   88  A    between atoms: _224  and  _227
REMARK   89  A    between atoms: _227  and  _228
REMARK   90  A    between atoms: _228  and  _229
REMARK   91  A    between atoms: _229  and  _230
REMARK   92  A    between atoms: _239  and  _241
REMARK   93  A    between atoms: _241  and  _242
REMARK   94  A    between atoms: _241  and  _244
REMARK   95  A    between atoms: _244  and  _245
REMARK   96  A    between atoms: _248  and  _250
REMARK   97  A    between atoms: _250  and  _251
REMARK   98  A    between atoms: _250  and  _253
REMARK   99  A    between atoms: _253  and  _254
REMARK  100  A    between atoms: _254  and  _255
REMARK  101  A    between atoms: _255  and  _256
REMARK  102  A    between atoms: _265  and  _267
REMARK  103  A    between atoms: _267  and  _268
REMARK  104  A    between atoms: _267  and  _270
REMARK  105  A    between atoms: _270  and  _271
REMARK  106  A    between atoms: _274  and  _276
REMARK  107  A    between atoms: _276  and  _277
REMARK  108  A    between atoms: _276  and  _279
REMARK  109  A    between atoms: _279  and  _280
REMARK                            x       y       z     vdW  Elec       q    Type
REMARK                         _______ _______ _______ _____ _____    ______ ____
ROOT
ATOM      1  CA  HIS A   2      15.862   3.352 153.285  0.00  0.00    +0.155 C 
ENDROOT
BRANCH   1   4
ATOM      2  C   TRP A   1      15.985   2.311 155.463  0.00  0.00    +0.239 C 
ATOM      3  O   TRP A   1      17.176   2.610 155.572  0.00  0.00    -0.274 OA
ATOM      4  N   HIS A   2      15.268   2.604 154.385  0.00  0.00    -0.297 N 
ATOM      5  H   HIS A   2      14.276   2.298 154.325  0.00  0.00    +0.150 HD
BRANCH   2   6
ATOM      6  CA  TRP A   1      15.267   1.554 156.575  0.00  0.00    +0.149 C 
BRANCH   6   7
ATOM      7  N   TRP A   1      14.058   2.240 157.023  0.00  0.00    -0.238 NA
ATOM      8  H   TRP A   1      13.290   2.421 156.346  0.00  0.00    +0.142 HD
ENDBRANCH   6   7
BRANCH   6   9
ATOM      9  CB  TRP A   1      14.962   0.124 156.124  0.00  0.00    +0.054 C 
BRANCH   9  10
ATOM     10  CG  TRP A   1      16.196  -0.593 155.665  0.00  0.00    -0.002 A 
ATOM     11  CD2 TRP A   1      17.195  -1.192 156.498  0.00  0.00    +0.013 A 
ATOM     12  CE3 TRP A   1      17.349  -1.325 157.881  0.00  0.00    +0.001 A 
ATOM     13  CZ3 TRP A   1      18.463  -1.987 158.365  0.00  0.00    +0.000 A 
ATOM     14  CH2 TRP A   1      19.425  -2.516 157.496  0.00  0.00    +0.001 A 
ATOM     15  CZ2 TRP A   1      19.301  -2.401 156.138  0.00  0.00    +0.017 A 
ATOM     16  CE2 TRP A   1      18.179  -1.734 155.648  0.00  0.00    +0.056 A 
ATOM     17  NE1 TRP A   1      17.800  -1.472 154.358  0.00  0.00    -0.352 N 
ATOM     18  HE1 TRP A   1      18.326  -1.749 153.505  0.00  0.00    +0.166 HD
ATOM     19  CD1 TRP A   1      16.610  -0.782 154.376  0.00  0.00    +0.068 A 
ENDBRANCH   9  10
ENDBRANCH   6   9
ENDBRANCH   2   6
ENDBRANCH   1   4
BRANCH   1  20
ATOM     20  C   HIS A   2      16.084   4.799 153.707  0.00  0.00    +0.241 C 
ATOM     21  O   HIS A   2      15.241   5.393 154.380  0.00  0.00    -0.273 OA
ATOM     22  N   TYR A   3      17.226   5.358 153.319  0.00  0.00    -0.298 N 
ATOM     23  H   TYR A   3      17.903   4.799 152.761  0.00  0.00    +0.150 HD
BRANCH  22  24
ATOM     24  CA  TYR A   3      17.550   6.739 153.659  0.00  0.00    +0.141 C 
BRANCH  24  25
ATOM     25  C   TYR A   3      16.808   7.672 152.709  0.00  0.00    +0.227 C 
ATOM     26  O   TYR A   3      17.427   8.401 151.931  0.00  0.00    -0.286 OA
ENDBRANCH  24  25
BRANCH  24  27
ATOM     27  CB  TYR A   3      19.063   6.989 153.570  0.00  0.00    +0.054 C 
BRANCH  27  28
ATOM     28  CG  TYR A   3      19.911   6.237 154.582  0.00  0.00    -0.020 A 
ATOM     29  CD2 TYR A   3      19.341   5.318 155.455  0.00  0.00    -0.001 A 
ATOM     30  CE2 TYR A   3      20.108   4.635 156.373  0.00  0.00    +0.036 A 
ATOM     31  CZ  TYR A   3      21.464   4.872 156.438  0.00  0.00    +0.134 A 
ATOM     32  CE1 TYR A   3      22.058   5.783 155.589  0.00  0.00    +0.036 A 
ATOM     33  CD1 TYR A   3      21.282   6.461 154.669  0.00  0.00    -0.001 A 
BRANCH  31  34
ATOM     34  OH  TYR A   3      22.233   4.192 157.355  0.00  0.00    -0.506 OA
ATOM     35  HH  TYR A   3      21.656   3.583 157.881  0.00  0.00    +0.292 HD
ENDBRANCH  31  34
ENDBRANCH  27  28
ENDBRANCH  24  27
ENDBRANCH  22  24
ENDBRANCH   1  20
BRANCH   1  36
ATOM     36  CB  HIS A   2      14.980   3.283 152.035  0.00  0.00    +0.076 C 
BRANCH  36  37
ATOM     37  CG  HIS A   2      15.296   2.132 151.130  0.00  0.00    +0.082 A 
ATOM     38  CD2 HIS A   2      14.520   1.123 150.666  0.00  0.00    +0.115 A 
ATOM     39  NE2 HIS A   2      15.308   0.343 149.856  0.00  0.00    -0.221 NA
ATOM     40  CE1 HIS A   2      16.525   0.856 149.819  0.00  0.00    +0.199 A 
ATOM     41  ND1 HIS A   2      16.544   1.938 150.577  0.00  0.00    -0.227 NA
ENDBRANCH  36  37
ENDBRANCH   1  36
TORSDOF 13
REMARK  Name = ../refined-set-2016/4n7u/4n7u_pocket.pdb
REMARK  109 active torsions:
REMARK  status: ('A' for Active; 'I' for Inactive)
REMARK    1  A    between atoms: _1  and  _3
REMARK    2  A    between atoms: _3  and  _4
REMARK    3  A    between atoms: _3  and  _6
REMARK    4  A    between atoms: _6  and  _7
REMARK    5  A    between atoms: _7  and  _8
REMARK    6  A    between atoms: _8  and  _9
REMARK    7  A    between atoms: _18  and  _20
REMARK    8  A    between atoms: _20  and  _21
REMARK    9  A    between atoms: _20  and  _23
REMARK   10  A    between atoms: _23  and  _24
REMARK   11  A    between atoms: _34  and  _36
REMARK   12  A    between atoms: _36  and  _37
REMARK   13  A    between atoms: _36  and  _39
REMARK   14  A    between atoms: _39  and  _40
REMARK   15  A    between atoms: _45  and  _47
REMARK   16  A    between atoms: _47  and  _48
REMARK   17  A    between atoms: _47  and  _50
REMARK   18  A    between atoms: _50  and  _51
REMARK   19  A    between atoms: _56  and  _57
REMARK   20  A    between atoms: _59  and  _61
REMARK   21  A    between atoms: _61  and  _62
REMARK   22  A    between atoms: _61  and  _64
REMARK   23  A    between atoms: _64  and  _65
REMARK   24  A    between atoms: _65  and  _66
REMARK   25  A    between atoms: _69  and  _71
REMARK   26  A    between atoms: _71  and  _72
REMARK   27  A    between atoms: _71  and  _74
REMARK   28  A    between atoms: _74  and  _75
REMARK   29  A    between atoms: _85  and  _87
REMARK   30  A    between atoms: _87  and  _88
REMARK   31  A    between atoms: _87  and  _90
REMARK   32  A    between atoms: _90  and  _91
REMARK   33  A    between atoms: _96  and  _98
REMARK   34  A    between atoms: _98  and  _99
REMARK   35  A    between atoms: _98  and  _101
REMARK   36  A    between atoms: _101  and  _102
REMARK   37  A    between atoms: _112  and  _114
REMARK   38  A    between atoms: _114  and  _115
REMARK   39  A    between atoms: _114  and  _117
REMARK   40  A    between atoms: _120  and  _122
REMARK   41  A    between atoms: _122  and  _123
REMARK   42  A    between atoms: _122  and  _125
REMARK   43  A    between atoms: _125  and  _126
REMARK   44  A    between atoms: _126  and  _127
REMARK   45  A    between atoms: _127  and  _128
REMARK   46  A    between atoms: _128  and  _129
REMARK   47  A    between atoms: _133  and  _135
REMARK   48  A    between atoms: _135  and  _136
REMARK   49  A    between atoms: _135  and  _138
REMARK   50  A    between atoms: _138  and  _139
REMARK   51  A    between atoms: _139  and  _140
REMARK   52  A    between atoms: _142  and  _144
REMARK   53  A    between atoms: _144  and  _145
REMARK   54  A    between atoms: _144  and  _147
REMARK   55  A    between atoms: _147  and  _148
REMARK   56  A    between atoms: _151  and  _153
REMARK   57  A    between atoms: _153  and  _154
REMARK   58  A    between atoms: _153  and  _156
REMARK   59  A    between atoms: _156  and  _157
REMARK   60  A    between atoms: _160  and  _162
REMARK   61  A    between atoms: _162  and  _163
REMARK   62  A    between atoms: _162  and  _165
REMARK   63  A    between atoms: _165  and  _166
REMARK   64  A    between atoms: _169  and  _171
REMARK   65  A    between atoms: _171  and  _172
REMARK   66  A    between atoms: _171  and  _174
REMARK   67  A    between atoms: _174  and  _175
REMARK   68  A    between atoms: _178  and  _180
REMARK   69  A    between atoms: _180  and  _181
REMARK   70  A    between atoms: _180  and  _183
REMARK   71  A    between atoms: _183  and  _184
REMARK   72  A    between atoms: _184  and  _185
REMARK   73  A    between atoms: _185  and  _186
REMARK   74  A    between atoms: _195  and  _197
REMARK   75  A    between atoms: _197  and  _198
REMARK   76  A    between atoms: _197  and  _200
REMARK   77  A    between atoms: _200  and  _201
REMARK   78  A    between atoms: _204  and  _206
REMARK   79  A    between atoms: _206  and  _207
REMARK   80  A    between atoms: _206  and  _209
REMARK   81  A    between atoms: _209  and  _210
REMARK   82  A    between atoms: _213  and  _215
REMARK   83  A    between atoms: _215  and  _216
REMARK   84  A    between atoms: _215  and  _218
REMARK   85  A    between atoms: _218  and  _219
REMARK   86  A    between atoms: _222  and  _224
REMARK   87  A    between atoms: _224  and  _225
REMARK   88  A    between atoms: _224  and  _227
REMARK   89  A    between atoms: _227  and  _228
REMARK   90  A    between atoms: _228  and  _229
REMARK   91  A    between atoms: _229  and  _230
REMARK   92  A    between atoms: _239  and  _241
REMARK   93  A    between atoms: _241  and  _242
REMARK   94  A    between atoms: _241  and  _244
REMARK   95  A    between atoms: _244  and  _245
REMARK   96  A    between atoms: _248  and  _250
REMARK   97  A    between atoms: _250  and  _251
REMARK   98  A    between atoms: _250  and  _253
REMARK   99  A    between atoms: _253  and  _254
REMARK  100  A    between atoms: _254  and  _255
REMARK  101  A    between atoms: _255  and  _256
REMARK  102  A    between atoms: _265  and  _267
REMARK  103  A    between atoms: _267  and  _268
REMARK  104  A    between atoms: _267  and  _270
REMARK  105  A    between atoms: _270  and  _271
REMARK  106  A    between atoms: _274  and  _276
REMARK  107  A    between atoms: _276  and  _277
REMARK  108  A    between atoms: _276  and  _279
REMARK  109  A    between atoms: _279  and  _280
REMARK                            x       y       z     vdW  Elec       q    Type
REMARK                         _______ _______ _______ _____ _____    ______ ____
ROOT
ATOM      1  CA  TRP A   2      22.410  10.890 145.335  0.00  0.00    +0.153 C 
ENDROOT
BRANCH   1   4
ATOM      2  C   GLU A   1      24.777  10.887 145.976  0.00  0.00    +0.238 C 
ATOM      3  O   GLU A   1      24.623  11.748 146.845  0.00  0.00    -0.274 OA
ATOM      4  N   TRP A   2      23.792  10.442 145.200  0.00  0.00    -0.297 N 
ATOM      5  H   TRP A   2      24.017   9.743 144.464  0.00  0.00    +0.150 HD
BRANCH   2   6
ATOM      6  CA  GLU A   1      26.145  10.258 145.737  0.00  0.00    +0.145 C 
BRANCH   6   7
ATOM      7  N   GLU A   1      27.184  11.270 145.639  0.00  0.00    -0.238 NA
ATOM      8  H   GLU A   1      27.048  12.188 146.109  0.00  0.00    +0.142 HD
ENDBRANCH   6   7
BRANCH   6   9
ATOM      9  CB  GLU A   1      26.486   9.276 146.859  0.00  0.00    +0.038 C 
BRANCH   9  10
ATOM     10  CG  GLU A   1      25.676   7.992 146.844  0.00  0.00    +0.116 C 
BRANCH  10  11
ATOM     11  CD  GLU A   1      24.348   8.117 147.562  0.00  0.00    +0.365 C 
ATOM     12  OE2 GLU A   1      24.178   9.063 148.362  0.00  0.00    -0.246 OA
ATOM     13  OE1 GLU A   1      23.469   7.261 147.326  0.00  0.00    -0.246 OA
ENDBRANCH  10  11
ENDBRANCH   9  10
ENDBRANCH   6   9
ENDBRANCH   2   6
ENDBRANCH   1   4
BRANCH   1  14
ATOM     14  C   TRP A   2      21.524  10.100 144.390  0.00  0.00    +0.241 C 
ATOM     15  N   HIS A   3      20.249   9.978 144.742  0.00  0.00    -0.298 N 
ATOM     16  H   HIS A   3      19.950  10.308 145.682  0.00  0.00    +0.150 HD
ATOM     17  O   TRP A   2      21.990   9.605 143.367  0.00  0.00    -0.273 OA
BRANCH  15  18
ATOM     18  CA  HIS A   3      19.258   9.395 143.847  0.00  0.00    +0.143 C 
BRANCH  18  19
ATOM     19  C   HIS A   3      17.942  10.139 144.022  0.00  0.00    +0.227 C 
ATOM     20  O   HIS A   3      17.504  10.393 145.145  0.00  0.00    -0.286 OA
ENDBRANCH  18  19
BRANCH  18  21
ATOM     21  CB  HIS A   3      19.076   7.896 144.111  0.00  0.00    +0.075 C 
BRANCH  21  22
ATOM     22  CG  HIS A   3      20.263   7.064 143.724  0.00  0.00    +0.082 A 
ATOM     23  ND1 HIS A   3      21.332   6.862 144.567  0.00  0.00    -0.227 NA
ATOM     24  CE1 HIS A   3      22.225   6.094 143.963  0.00  0.00    +0.199 A 
ATOM     25  NE2 HIS A   3      21.774   5.798 142.761  0.00  0.00    -0.221 NA
ATOM     26  CD2 HIS A   3      20.545   6.392 142.584  0.00  0.00    +0.115 A 
ENDBRANCH  21  22
ENDBRANCH  18  21
ENDBRANCH  15  18
ENDBRANCH   1  14
BRANCH   1  27
ATOM     27  CB  TRP A   2      22.277  12.381 145.020  0.00  0.00    +0.057 C 
BRANCH  27  28
ATOM     28  CG  TRP A   2      22.917  12.796 143.737  0.00  0.00    -0.002 A 
ATOM     29  CD1 TRP A   2      24.180  13.283 143.574  0.00  0.00    +0.068 A 
ATOM     30  NE1 TRP A   2      24.411  13.567 142.251  0.00  0.00    -0.352 N 
ATOM     31  HE1 TRP A   2      25.295  13.950 141.860  0.00  0.00    +0.166 HD
ATOM     32  CE2 TRP A   2      23.286  13.263 141.528  0.00  0.00    +0.056 A 
ATOM     33  CZ2 TRP A   2      23.037  13.378 140.161  0.00  0.00    +0.017 A 
ATOM     34  CH2 TRP A   2      21.803  12.994 139.710  0.00  0.00    +0.001 A 
ATOM     35  CZ3 TRP A   2      20.824  12.507 140.585  0.00  0.00    +0.000 A 
ATOM     36  CE3 TRP A   2      21.070  12.393 141.943  0.00  0.00    +0.001 A 
ATOM     37  CD2 TRP A   2      22.323  12.776 142.433  0.00  0.00    +0.013 A 
ENDBRANCH  27  28
ENDBRANCH   1  27
TORSDOF 13
REMARK  Name = ../refined-set-2016/4n7u/4n7u_pocket.pdb
REMARK  109 active torsions:
REMARK  status: ('A' for Active; 'I' for Inactive)
REMARK    1  A    between atoms: _1  and  _3
REMARK    2  A    between atoms: _3  and  _4
REMARK    3  A    between atoms: _3  and  _6
REMARK    4  A    between atoms: _6  and  _7
REMARK    5  A    between atoms: _7  and  _8
REMARK    6  A    between atoms: _8  and  _9
REMARK    7  A    between atoms: _18  and  _20
REMARK    8  A    between atoms: _20  and  _21
REMARK    9  A    between atoms: _20  and  _23
REMARK   10  A    between atoms: _23  and  _24
REMARK   11  A    between atoms: _34  and  _36
REMARK   12  A    between atoms: _36  and  _37
REMARK   13  A    between atoms: _36  and  _39
REMARK   14  A    between atoms: _39  and  _40
REMARK   15  A    between atoms: _45  and  _47
REMARK   16  A    between atoms: _47  and  _48
REMARK   17  A    between atoms: _47  and  _50
REMARK   18  A    between atoms: _50  and  _51
REMARK   19  A    between atoms: _56  and  _57
REMARK   20  A    between atoms: _59  and  _61
REMARK   21  A    between atoms: _61  and  _62
REMARK   22  A    between atoms: _61  and  _64
REMARK   23  A    between atoms: _64  and  _65
REMARK   24  A    between atoms: _65  and  _66
REMARK   25  A    between atoms: _69  and  _71
REMARK   26  A    between atoms: _71  and  _72
REMARK   27  A    between atoms: _71  and  _74
REMARK   28  A    between atoms: _74  and  _75
REMARK   29  A    between atoms: _85  and  _87
REMARK   30  A    between atoms: _87  and  _88
REMARK   31  A    between atoms: _87  and  _90
REMARK   32  A    between atoms: _90  and  _91
REMARK   33  A    between atoms: _96  and  _98
REMARK   34  A    between atoms: _98  and  _99
REMARK   35  A    between atoms: _98  and  _101
REMARK   36  A    between atoms: _101  and  _102
REMARK   37  A    between atoms: _112  and  _114
REMARK   38  A    between atoms: _114  and  _115
REMARK   39  A    between atoms: _114  and  _117
REMARK   40  A    between atoms: _120  and  _122
REMARK   41  A    between atoms: _122  and  _123
REMARK   42  A    between atoms: _122  and  _125
REMARK   43  A    between atoms: _125  and  _126
REMARK   44  A    between atoms: _126  and  _127
REMARK   45  A    between atoms: _127  and  _128
REMARK   46  A    between atoms: _128  and  _129
REMARK   47  A    between atoms: _133  and  _135
REMARK   48  A    between atoms: _135  and  _136
REMARK   49  A    between atoms: _135  and  _138
REMARK   50  A    between atoms: _138  and  _139
REMARK   51  A    between atoms: _139  and  _140
REMARK   52  A    between atoms: _142  and  _144
REMARK   53  A    between atoms: _144  and  _145
REMARK   54  A    between atoms: _144  and  _147
REMARK   55  A    between atoms: _147  and  _148
REMARK   56  A    between atoms: _151  and  _153
REMARK   57  A    between atoms: _153  and  _154
REMARK   58  A    between atoms: _153  and  _156
REMARK   59  A    between atoms: _156  and  _157
REMARK   60  A    between atoms: _160  and  _162
REMARK   61  A    between atoms: _162  and  _163
REMARK   62  A    between atoms: _162  and  _165
REMARK   63  A    between atoms: _165  and  _166
REMARK   64  A    between atoms: _169  and  _171
REMARK   65  A    between atoms: _171  and  _172
REMARK   66  A    between atoms: _171  and  _174
REMARK   67  A    between atoms: _174  and  _175
REMARK   68  A    between atoms: _178  and  _180
REMARK   69  A    between atoms: _180  and  _181
REMARK   70  A    between atoms: _180  and  _183
REMARK   71  A    between atoms: _183  and  _184
REMARK   72  A    between atoms: _184  and  _185
REMARK   73  A    between atoms: _185  and  _186
REMARK   74  A    between atoms: _195  and  _197
REMARK   75  A    between atoms: _197  and  _198
REMARK   76  A    between atoms: _197  and  _200
REMARK   77  A    between atoms: _200  and  _201
REMARK   78  A    between atoms: _204  and  _206
REMARK   79  A    between atoms: _206  and  _207
REMARK   80  A    between atoms: _206  and  _209
REMARK   81  A    between atoms: _209  and  _210
REMARK   82  A    between atoms: _213  and  _215
REMARK   83  A    between atoms: _215  and  _216
REMARK   84  A    between atoms: _215  and  _218
REMARK   85  A    between atoms: _218  and  _219
REMARK   86  A    between atoms: _222  and  _224
REMARK   87  A    between atoms: _224  and  _225
REMARK   88  A    between atoms: _224  and  _227
REMARK   89  A    between atoms: _227  and  _228
REMARK   90  A    between atoms: _228  and  _229
REMARK   91  A    between atoms: _229  and  _230
REMARK   92  A    between atoms: _239  and  _241
REMARK   93  A    between atoms: _241  and  _242
REMARK   94  A    between atoms: _241  and  _244
REMARK   95  A    between atoms: _244  and  _245
REMARK   96  A    between atoms: _248  and  _250
REMARK   97  A    between atoms: _250  and  _251
REMARK   98  A    between atoms: _250  and  _253
REMARK   99  A    between atoms: _253  and  _254
REMARK  100  A    between atoms: _254  and  _255
REMARK  101  A    between atoms: _255  and  _256
REMARK  102  A    between atoms: _265  and  _267
REMARK  103  A    between atoms: _267  and  _268
REMARK  104  A    between atoms: _267  and  _270
REMARK  105  A    between atoms: _270  and  _271
REMARK  106  A    between atoms: _274  and  _276
REMARK  107  A    between atoms: _276  and  _277
REMARK  108  A    between atoms: _276  and  _279
REMARK  109  A    between atoms: _279  and  _280
REMARK                            x       y       z     vdW  Elec       q    Type
REMARK                         _______ _______ _______ _____ _____    ______ ____
ROOT
ATOM      1  CA  LYS A   3      14.878  -2.993 146.317  0.00  0.00    +0.149 C 
ENDROOT
BRANCH   1   4
ATOM      2  C   VAL A   2      13.626  -3.071 148.378  0.00  0.00    +0.241 C 
ATOM      3  O   VAL A   2      13.949  -1.914 148.648  0.00  0.00    -0.273 OA
ATOM      4  N   LYS A   3      14.017  -3.682 147.267  0.00  0.00    -0.297 N 
ATOM      5  H   LYS A   3      13.707  -4.656 147.074  0.00  0.00    +0.150 HD
BRANCH   2   6
ATOM      6  CA  VAL A   2      12.761  -3.865 149.340  0.00  0.00    +0.148 C 
BRANCH   6   9
ATOM      7  C   TRP A   1      13.114  -3.932 151.752  0.00  0.00    +0.239 C 
ATOM      8  O   TRP A   1      12.717  -5.086 151.892  0.00  0.00    -0.274 OA
ATOM      9  N   VAL A   2      12.957  -3.233 150.636  0.00  0.00    -0.297 N 
ATOM     10  H   VAL A   2      12.975  -2.195 150.689  0.00  0.00    +0.150 HD
BRANCH   7  11
ATOM     11  CA  TRP A   1      13.821  -3.201 152.880  0.00  0.00    +0.149 C 
BRANCH  11  12
ATOM     12  N   TRP A   1      13.171  -3.346 154.180  0.00  0.00    -0.238 NA
ATOM     13  H   TRP A   1      13.174  -4.275 154.647  0.00  0.00    +0.142 HD
ENDBRANCH  11  12
BRANCH  11  14
ATOM     14  CB  TRP A   1      15.264  -3.706 152.950  0.00  0.00    +0.054 C 
BRANCH  14  15
ATOM     15  CG  TRP A   1      16.045  -3.575 151.655  0.00  0.00    -0.002 A 
ATOM     16  CD1 TRP A   1      16.747  -2.483 151.226  0.00  0.00    +0.068 A 
ATOM     17  NE1 TRP A   1      17.334  -2.744 150.009  0.00  0.00    -0.352 N 
ATOM     18  CE2 TRP A   1      17.022  -4.024 149.630  0.00  0.00    +0.056 A 
ATOM     19  CZ2 TRP A   1      17.381  -4.738 148.484  0.00  0.00    +0.017 A 
ATOM     20  CH2 TRP A   1      16.917  -6.022 148.368  0.00  0.00    +0.001 A 
ATOM     21  CZ3 TRP A   1      16.114  -6.600 149.358  0.00  0.00    +0.000 A 
ATOM     22  CE3 TRP A   1      15.755  -5.892 150.493  0.00  0.00    +0.001 A 
ATOM     23  HE1 TRP A   1      17.919  -2.078 149.465  0.00  0.00    +0.166 HD
ATOM     24  CD2 TRP A   1      16.214  -4.580 150.643  0.00  0.00    +0.013 A 
ENDBRANCH  14  15
ENDBRANCH  11  14
ENDBRANCH   7  11
ENDBRANCH   6   9
BRANCH   6  25
ATOM     25  CB  VAL A   2      11.289  -3.846 148.870  0.00  0.00    +0.027 C 
ATOM     26  CG2 VAL A   2      10.513  -5.012 149.468  0.00  0.00    +0.002 C 
ATOM     27  CG1 VAL A   2      10.629  -2.511 149.192  0.00  0.00    +0.002 C 
ENDBRANCH   6  25
ENDBRANCH   2   6
ENDBRANCH   1   4
BRANCH   1  28
ATOM     28  C   LYS A   3      14.131  -1.860 145.633  0.00  0.00    +0.241 C 
ATOM     29  N   MET A   4      14.778  -0.704 145.532  0.00  0.00    -0.297 N 
ATOM     30  H   MET A   4      15.727  -0.612 145.947  0.00  0.00    +0.150 HD
ATOM     31  O   LYS A   3      12.986  -2.027 145.213  0.00  0.00    -0.273 OA
BRANCH  29  32
ATOM     32  CA  MET A   4      14.181   0.437 144.849  0.00  0.00    +0.149 C 
BRANCH  32  33
ATOM     33  C   MET A   4      14.253   0.249 143.335  0.00  0.00    +0.241 C 
ATOM     34  N   THR A   5      13.188  -0.331 142.789  0.00  0.00    -0.296 N 
ATOM     35  H   THR A   5      12.402  -0.598 143.416  0.00  0.00    +0.150 HD
ATOM     36  O   MET A   4      15.245   0.597 142.694  0.00  0.00    -0.273 OA
BRANCH  34  37
ATOM     37  CA  THR A   5      13.054  -0.616 141.364  0.00  0.00    +0.164 C 
BRANCH  37  38
ATOM     38  CB  THR A   5      13.268  -2.118 141.075  0.00  0.00    +0.136 C 
ATOM     39  CG2 THR A   5      14.677  -2.554 141.440  0.00  0.00    +0.034 C 
BRANCH  38  40
ATOM     40  OG1 THR A   5      12.328  -2.888 141.834  0.00  0.00    -0.382 OA
ATOM     41  HG1 THR A   5      12.466  -3.851 141.648  0.00  0.00    +0.210 HD
ENDBRANCH  38  40
ENDBRANCH  37  38
BRANCH  37  42
ATOM     42  C   THR A   5      11.635  -0.233 140.940  0.00  0.00    +0.229 C 
ATOM     43  O   THR A   5      10.756  -0.092 141.792  0.00  0.00    -0.286 OA
ENDBRANCH  37  42
ENDBRANCH  34  37
ENDBRANCH  32  33
BRANCH  32  44
ATOM     44  CB  MET A   4      14.843   1.745 145.295  0.00  0.00    +0.041 C 
BRANCH  44  45
ATOM     45  CG  MET A   4      14.530   2.109 146.746  0.00  0.00    +0.060 C 
BRANCH  45  46
ATOM     46  SD  MET A   4      15.419   3.550 147.354  0.00  0.00    -0.139 S 
ATOM     47  CE  MET A   4      15.102   4.710 146.031  0.00  0.00    +0.069 C 
ENDBRANCH  45  46
ENDBRANCH  44  45
ENDBRANCH  32  44
ENDBRANCH  29  32
ENDBRANCH   1  28
BRANCH   1  48
ATOM     48  CB  LYS A   3      15.420  -3.964 145.274  0.00  0.00    +0.029 C 
BRANCH  48  49
ATOM     49  CG  LYS A   3      16.500  -3.370 144.396  0.00  0.00    +0.000 C 
BRANCH  49  50
ATOM     50  CD  LYS A   3      17.098  -4.431 143.504  0.00  0.00    -0.024 C 
BRANCH  50  51
ATOM     51  CE  LYS A   3      18.601  -4.276 143.422  0.00  0.00    -0.086 C 
BRANCH  51  52
ATOM     52  NZ  LYS A   3      19.251  -5.538 142.980  0.00  0.00    +0.380 N 
ATOM     53  HZ1 LYS A   3      19.032  -6.295 143.659  0.00  0.00    -0.089 HD
ATOM     54  HZ2 LYS A   3      20.281  -5.399 142.934  0.00  0.00    -0.089 HD
ATOM     55  HZ3 LYS A   3      18.893  -5.800 142.039  0.00  0.00    -0.089 HD
ENDBRANCH  51  52
ENDBRANCH  50  51
ENDBRANCH  49  50
ENDBRANCH  48  49
ENDBRANCH   1  48
TORSDOF 23
REMARK  Name = ../refined-set-2016/4n7u/4n7u_pocket.pdb
REMARK  109 active torsions:
REMARK  status: ('A' for Active; 'I' for Inactive)
REMARK    1  A    between atoms: _1  and  _3
REMARK    2  A    between atoms: _3  and  _4
REMARK    3  A    between atoms: _3  and  _6
REMARK    4  A    between atoms: _6  and  _7
REMARK    5  A    between atoms: _7  and  _8
REMARK    6  A    between atoms: _8  and  _9
REMARK    7  A    between atoms: _18  and  _20
REMARK    8  A    between atoms: _20  and  _21
REMARK    9  A    between atoms: _20  and  _23
REMARK   10  A    between atoms: _23  and  _24
REMARK   11  A    between atoms: _34  and  _36
REMARK   12  A    between atoms: _36  and  _37
REMARK   13  A    between atoms: _36  and  _39
REMARK   14  A    between atoms: _39  and  _40
REMARK   15  A    between atoms: _45  and  _47
REMARK   16  A    between atoms: _47  and  _48
REMARK   17  A    between atoms: _47  and  _50
REMARK   18  A    between atoms: _50  and  _51
REMARK   19  A    between atoms: _56  and  _57
REMARK   20  A    between atoms: _59  and  _61
REMARK   21  A    between atoms: _61  and  _62
REMARK   22  A    between atoms: _61  and  _64
REMARK   23  A    between atoms: _64  and  _65
REMARK   24  A    between atoms: _65  and  _66
REMARK   25  A    between atoms: _69  and  _71
REMARK   26  A    between atoms: _71  and  _72
REMARK   27  A    between atoms: _71  and  _74
REMARK   28  A    between atoms: _74  and  _75
REMARK   29  A    between atoms: _85  and  _87
REMARK   30  A    between atoms: _87  and  _88
REMARK   31  A    between atoms: _87  and  _90
REMARK   32  A    between atoms: _90  and  _91
REMARK   33  A    between atoms: _96  and  _98
REMARK   34  A    between atoms: _98  and  _99
REMARK   35  A    between atoms: _98  and  _101
REMARK   36  A    between atoms: _101  and  _102
REMARK   37  A    between atoms: _112  and  _114
REMARK   38  A    between atoms: _114  and  _115
REMARK   39  A    between atoms: _114  and  _117
REMARK   40  A    between atoms: _120  and  _122
REMARK   41  A    between atoms: _122  and  _123
REMARK   42  A    between atoms: _122  and  _125
REMARK   43  A    between atoms: _125  and  _126
REMARK   44  A    between atoms: _126  and  _127
REMARK   45  A    between atoms: _127  and  _128
REMARK   46  A    between atoms: _128  and  _129
REMARK   47  A    between atoms: _133  and  _135
REMARK   48  A    between atoms: _135  and  _136
REMARK   49  A    between atoms: _135  and  _138
REMARK   50  A    between atoms: _138  and  _139
REMARK   51  A    between atoms: _139  and  _140
REMARK   52  A    between atoms: _142  and  _144
REMARK   53  A    between atoms: _144  and  _145
REMARK   54  A    between atoms: _144  and  _147
REMARK   55  A    between atoms: _147  and  _148
REMARK   56  A    between atoms: _151  and  _153
REMARK   57  A    between atoms: _153  and  _154
REMARK   58  A    between atoms: _153  and  _156
REMARK   59  A    between atoms: _156  and  _157
REMARK   60  A    between atoms: _160  and  _162
REMARK   61  A    between atoms: _162  and  _163
REMARK   62  A    between atoms: _162  and  _165
REMARK   63  A    between atoms: _165  and  _166
REMARK   64  A    between atoms: _169  and  _171
REMARK   65  A    between atoms: _171  and  _172
REMARK   66  A    between atoms: _171  and  _174
REMARK   67  A    between atoms: _174  and  _175
REMARK   68  A    between atoms: _178  and  _180
REMARK   69  A    between atoms: _180  and  _181
REMARK   70  A    between atoms: _180  and  _183
REMARK   71  A    between atoms: _183  and  _184
REMARK   72  A    between atoms: _184  and  _185
REMARK   73  A    between atoms: _185  and  _186
REMARK   74  A    between atoms: _195  and  _197
REMARK   75  A    between atoms: _197  and  _198
REMARK   76  A    between atoms: _197  and  _200
REMARK   77  A    between atoms: _200  and  _201
REMARK   78  A    between atoms: _204  and  _206
REMARK   79  A    between atoms: _206  and  _207
REMARK   80  A    between atoms: _206  and  _209
REMARK   81  A    between atoms: _209  and  _210
REMARK   82  A    between atoms: _213  and  _215
REMARK   83  A    between atoms: _215  and  _216
REMARK   84  A    between atoms: _215  and  _218
REMARK   85  A    between atoms: _218  and  _219
REMARK   86  A    between atoms: _222  and  _224
REMARK   87  A    between atoms: _224  and  _225
REMARK   88  A    between atoms: _224  and  _227
REMARK   89  A    between atoms: _227  and  _228
REMARK   90  A    between atoms: _228  and  _229
REMARK   91  A    between atoms: _229  and  _230
REMARK   92  A    between atoms: _239  and  _241
REMARK   93  A    between atoms: _241  and  _242
REMARK   94  A    between atoms: _241  and  _244
REMARK   95  A    between atoms: _244  and  _245
REMARK   96  A    between atoms: _248  and  _250
REMARK   97  A    between atoms: _250  and  _251
REMARK   98  A    between atoms: _250  and  _253
REMARK   99  A    between atoms: _253  and  _254
REMARK  100  A    between atoms: _254  and  _255
REMARK  101  A    between atoms: _255  and  _256
REMARK  102  A    between atoms: _265  and  _267
REMARK  103  A    between atoms: _267  and  _268
REMARK  104  A    between atoms: _267  and  _270
REMARK  105  A    between atoms: _270  and  _271
REMARK  106  A    between atoms: _274  and  _276
REMARK  107  A    between atoms: _276  and  _277
REMARK  108  A    between atoms: _276  and  _279
REMARK  109  A    between atoms: _279  and  _280
REMARK                            x       y       z     vdW  Elec       q    Type
REMARK                         _______ _______ _______ _____ _____    ______ ____
ROOT
ATOM      1  CA  THR A   1      14.741   6.936 140.214  0.00  0.00    +0.160 C 
ENDROOT
BRANCH   1   2
ATOM      2  N   THR A   1      13.672   6.018 139.849  0.00  0.00    -0.237 NA
ATOM      3  H   THR A   1      13.887   5.005 139.753  0.00  0.00    +0.142 HD
ENDBRANCH   1   2
BRANCH   1   4
ATOM      4  CB  THR A   1      15.093   6.795 141.709  0.00  0.00    +0.134 C 
ATOM      5  CG2 THR A   1      13.879   7.071 142.589  0.00  0.00    +0.034 C 
BRANCH   4   6
ATOM      6  OG1 THR A   1      15.558   5.465 141.966  0.00  0.00    -0.383 OA
ATOM      7  HG1 THR A   1      14.847   4.817 141.731  0.00  0.00    +0.210 HD
ENDBRANCH   4   6
ENDBRANCH   1   4
BRANCH   1   8
ATOM      8  C   THR A   1      16.013   6.675 139.411  0.00  0.00    +0.227 C 
ATOM      9  O   THR A   1      16.242   5.565 138.929  0.00  0.00    -0.287 OA
ENDBRANCH   1   8
TORSDOF 4
REMARK  Name = ../refined-set-2016/4n7u/4n7u_pocket.pdb
REMARK  109 active torsions:
REMARK  status: ('A' for Active; 'I' for Inactive)
REMARK    1  A    between atoms: _1  and  _3
REMARK    2  A    between atoms: _3  and  _4
REMARK    3  A    between atoms: _3  and  _6
REMARK    4  A    between atoms: _6  and  _7
REMARK    5  A    between atoms: _7  and  _8
REMARK    6  A    between atoms: _8  and  _9
REMARK    7  A    between atoms: _18  and  _20
REMARK    8  A    between atoms: _20  and  _21
REMARK    9  A    between atoms: _20  and  _23
REMARK   10  A    between atoms: _23  and  _24
REMARK   11  A    between atoms: _34  and  _36
REMARK   12  A    between atoms: _36  and  _37
REMARK   13  A    between atoms: _36  and  _39
REMARK   14  A    between atoms: _39  and  _40
REMARK   15  A    between atoms: _45  and  _47
REMARK   16  A    between atoms: _47  and  _48
REMARK   17  A    between atoms: _47  and  _50
REMARK   18  A    between atoms: _50  and  _51
REMARK   19  A    between atoms: _56  and  _57
REMARK   20  A    between atoms: _59  and  _61
REMARK   21  A    between atoms: _61  and  _62
REMARK   22  A    between atoms: _61  and  _64
REMARK   23  A    between atoms: _64  and  _65
REMARK   24  A    between atoms: _65  and  _66
REMARK   25  A    between atoms: _69  and  _71
REMARK   26  A    between atoms: _71  and  _72
REMARK   27  A    between atoms: _71  and  _74
REMARK   28  A    between atoms: _74  and  _75
REMARK   29  A    between atoms: _85  and  _87
REMARK   30  A    between atoms: _87  and  _88
REMARK   31  A    between atoms: _87  and  _90
REMARK   32  A    between atoms: _90  and  _91
REMARK   33  A    between atoms: _96  and  _98
REMARK   34  A    between atoms: _98  and  _99
REMARK   35  A    between atoms: _98  and  _101
REMARK   36  A    between atoms: _101  and  _102
REMARK   37  A    between atoms: _112  and  _114
REMARK   38  A    between atoms: _114  and  _115
REMARK   39  A    between atoms: _114  and  _117
REMARK   40  A    between atoms: _120  and  _122
REMARK   41  A    between atoms: _122  and  _123
REMARK   42  A    between atoms: _122  and  _125
REMARK   43  A    between atoms: _125  and  _126
REMARK   44  A    between atoms: _126  and  _127
REMARK   45  A    between atoms: _127  and  _128
REMARK   46  A    between atoms: _128  and  _129
REMARK   47  A    between atoms: _133  and  _135
REMARK   48  A    between atoms: _135  and  _136
REMARK   49  A    between atoms: _135  and  _138
REMARK   50  A    between atoms: _138  and  _139
REMARK   51  A    between atoms: _139  and  _140
REMARK   52  A    between atoms: _142  and  _144
REMARK   53  A    between atoms: _144  and  _145
REMARK   54  A    between atoms: _144  and  _147
REMARK   55  A    between atoms: _147  and  _148
REMARK   56  A    between atoms: _151  and  _153
REMARK   57  A    between atoms: _153  and  _154
REMARK   58  A    between atoms: _153  and  _156
REMARK   59  A    between atoms: _156  and  _157
REMARK   60  A    between atoms: _160  and  _162
REMARK   61  A    between atoms: _162  and  _163
REMARK   62  A    between atoms: _162  and  _165
REMARK   63  A    between atoms: _165  and  _166
REMARK   64  A    between atoms: _169  and  _171
REMARK   65  A    between atoms: _171  and  _172
REMARK   66  A    between atoms: _171  and  _174
REMARK   67  A    between atoms: _174  and  _175
REMARK   68  A    between atoms: _178  and  _180
REMARK   69  A    between atoms: _180  and  _181
REMARK   70  A    between atoms: _180  and  _183
REMARK   71  A    between atoms: _183  and  _184
REMARK   72  A    between atoms: _184  and  _185
REMARK   73  A    between atoms: _185  and  _186
REMARK   74  A    between atoms: _195  and  _197
REMARK   75  A    between atoms: _197  and  _198
REMARK   76  A    between atoms: _197  and  _200
REMARK   77  A    between atoms: _200  and  _201
REMARK   78  A    between atoms: _204  and  _206
REMARK   79  A    between atoms: _206  and  _207
REMARK   80  A    between atoms: _206  and  _209
REMARK   81  A    between atoms: _209  and  _210
REMARK   82  A    between atoms: _213  and  _215
REMARK   83  A    between atoms: _215  and  _216
REMARK   84  A    between atoms: _215  and  _218
REMARK   85  A    between atoms: _218  and  _219
REMARK   86  A    between atoms: _222  and  _224
REMARK   87  A    between atoms: _224  and  _225
REMARK   88  A    between atoms: _224  and  _227
REMARK   89  A    between atoms: _227  and  _228
REMARK   90  A    between atoms: _228  and  _229
REMARK   91  A    between atoms: _229  and  _230
REMARK   92  A    between atoms: _239  and  _241
REMARK   93  A    between atoms: _241  and  _242
REMARK   94  A    between atoms: _241  and  _244
REMARK   95  A    between atoms: _244  and  _245
REMARK   96  A    between atoms: _248  and  _250
REMARK   97  A    between atoms: _250  and  _251
REMARK   98  A    between atoms: _250  and  _253
REMARK   99  A    between atoms: _253  and  _254
REMARK  100  A    between atoms: _254  and  _255
REMARK  101  A    between atoms: _255  and  _256
REMARK  102  A    between atoms: _265  and  _267
REMARK  103  A    between atoms: _267  and  _268
REMARK  104  A    between atoms: _267  and  _270
REMARK  105  A    between atoms: _270  and  _271
REMARK  106  A    between atoms: _274  and  _276
REMARK  107  A    between atoms: _276  and  _277
REMARK  108  A    between atoms: _276  and  _279
REMARK  109  A    between atoms: _279  and  _280
REMARK                            x       y       z     vdW  Elec       q    Type
REMARK                         _______ _______ _______ _____ _____    ______ ____
ROOT
ATOM      1  C   LEU A   1      25.560   8.133 142.364  0.00  0.00    +0.238 C 
ATOM      2  O   LEU A   1      25.059   8.272 143.479  0.00  0.00    -0.274 OA
ATOM      3  N   THR A   2      26.510   7.244 142.143  0.00  0.00    -0.296 N 
ATOM      4  H   THR A   2      26.727   6.995 141.157  0.00  0.00    +0.150 HD
ENDROOT
BRANCH   1   5
ATOM      5  CA  LEU A   1      25.016   8.905 141.166  0.00  0.00    +0.145 C 
BRANCH   5   6
ATOM      6  N   LEU A   1      23.566   8.991 141.225  0.00  0.00    -0.238 NA
ATOM      7  H   LEU A   1      23.119   9.316 142.106  0.00  0.00    +0.142 HD
ENDBRANCH   5   6
BRANCH   5   8
ATOM      8  CB  LEU A   1      25.596  10.321 141.143  0.00  0.00    +0.026 C 
BRANCH   8   9
ATOM      9  CG  LEU A   1      27.115  10.471 141.197  0.00  0.00    +0.002 C 
ATOM     10  CD2 LEU A   1      27.505  11.930 141.362  0.00  0.00    +0.000 C 
ATOM     11  CD1 LEU A   1      27.750   9.880 139.953  0.00  0.00    +0.000 C 
ENDBRANCH   8   9
ENDBRANCH   5   8
ENDBRANCH   1   5
BRANCH   3  12
ATOM     12  CA  THR A   2      27.267   6.596 143.192  0.00  0.00    +0.164 C 
BRANCH  12  13
ATOM     13  CB  THR A   2      26.828   5.121 143.271  0.00  0.00    +0.136 C 
ATOM     14  CG2 THR A   2      27.335   4.478 144.542  0.00  0.00    +0.034 C 
BRANCH  13  15
ATOM     15  OG1 THR A   2      25.398   5.043 143.263  0.00  0.00    -0.382 OA
ATOM     16  HG1 THR A   2      25.037   5.536 144.042  0.00  0.00    +0.210 HD
ENDBRANCH  13  15
ENDBRANCH  12  13
BRANCH  12  17
ATOM     17  C   THR A   2      28.773   6.724 142.901  0.00  0.00    +0.229 C 
ATOM     18  O   THR A   2      29.152   6.807 141.795  0.00  0.00    -0.286 OA
ENDBRANCH  12  17
ENDBRANCH   3  12
TORSDOF 8
REMARK  Name = ../refined-set-2016/4n7u/4n7u_pocket.pdb
REMARK  109 active torsions:
REMARK  status: ('A' for Active; 'I' for Inactive)
REMARK    1  A    between atoms: _1  and  _3
REMARK    2  A    between atoms: _3  and  _4
REMARK    3  A    between atoms: _3  and  _6
REMARK    4  A    between atoms: _6  and  _7
REMARK    5  A    between atoms: _7  and  _8
REMARK    6  A    between atoms: _8  and  _9
REMARK    7  A    between atoms: _18  and  _20
REMARK    8  A    between atoms: _20  and  _21
REMARK    9  A    between atoms: _20  and  _23
REMARK   10  A    between atoms: _23  and  _24
REMARK   11  A    between atoms: _34  and  _36
REMARK   12  A    between atoms: _36  and  _37
REMARK   13  A    between atoms: _36  and  _39
REMARK   14  A    between atoms: _39  and  _40
REMARK   15  A    between atoms: _45  and  _47
REMARK   16  A    between atoms: _47  and  _48
REMARK   17  A    between atoms: _47  and  _50
REMARK   18  A    between atoms: _50  and  _51
REMARK   19  A    between atoms: _56  and  _57
REMARK   20  A    between atoms: _59  and  _61
REMARK   21  A    between atoms: _61  and  _62
REMARK   22  A    between atoms: _61  and  _64
REMARK   23  A    between atoms: _64  and  _65
REMARK   24  A    between atoms: _65  and  _66
REMARK   25  A    between atoms: _69  and  _71
REMARK   26  A    between atoms: _71  and  _72
REMARK   27  A    between atoms: _71  and  _74
REMARK   28  A    between atoms: _74  and  _75
REMARK   29  A    between atoms: _85  and  _87
REMARK   30  A    between atoms: _87  and  _88
REMARK   31  A    between atoms: _87  and  _90
REMARK   32  A    between atoms: _90  and  _91
REMARK   33  A    between atoms: _96  and  _98
REMARK   34  A    between atoms: _98  and  _99
REMARK   35  A    between atoms: _98  and  _101
REMARK   36  A    between atoms: _101  and  _102
REMARK   37  A    between atoms: _112  and  _114
REMARK   38  A    between atoms: _114  and  _115
REMARK   39  A    between atoms: _114  and  _117
REMARK   40  A    between atoms: _120  and  _122
REMARK   41  A    between atoms: _122  and  _123
REMARK   42  A    between atoms: _122  and  _125
REMARK   43  A    between atoms: _125  and  _126
REMARK   44  A    between atoms: _126  and  _127
REMARK   45  A    between atoms: _127  and  _128
REMARK   46  A    between atoms: _128  and  _129
REMARK   47  A    between atoms: _133  and  _135
REMARK   48  A    between atoms: _135  and  _136
REMARK   49  A    between atoms: _135  and  _138
REMARK   50  A    between atoms: _138  and  _139
REMARK   51  A    between atoms: _139  and  _140
REMARK   52  A    between atoms: _142  and  _144
REMARK   53  A    between atoms: _144  and  _145
REMARK   54  A    between atoms: _144  and  _147
REMARK   55  A    between atoms: _147  and  _148
REMARK   56  A    between atoms: _151  and  _153
REMARK   57  A    between atoms: _153  and  _154
REMARK   58  A    between atoms: _153  and  _156
REMARK   59  A    between atoms: _156  and  _157
REMARK   60  A    between atoms: _160  and  _162
REMARK   61  A    between atoms: _162  and  _163
REMARK   62  A    between atoms: _162  and  _165
REMARK   63  A    between atoms: _165  and  _166
REMARK   64  A    between atoms: _169  and  _171
REMARK   65  A    between atoms: _171  and  _172
REMARK   66  A    between atoms: _171  and  _174
REMARK   67  A    between atoms: _174  and  _175
REMARK   68  A    between atoms: _178  and  _180
REMARK   69  A    between atoms: _180  and  _181
REMARK   70  A    between atoms: _180  and  _183
REMARK   71  A    between atoms: _183  and  _184
REMARK   72  A    between atoms: _184  and  _185
REMARK   73  A    between atoms: _185  and  _186
REMARK   74  A    between atoms: _195  and  _197
REMARK   75  A    between atoms: _197  and  _198
REMARK   76  A    between atoms: _197  and  _200
REMARK   77  A    between atoms: _200  and  _201
REMARK   78  A    between atoms: _204  and  _206
REMARK   79  A    between atoms: _206  and  _207
REMARK   80  A    between atoms: _206  and  _209
REMARK   81  A    between atoms: _209  and  _210
REMARK   82  A    between atoms: _213  and  _215
REMARK   83  A    between atoms: _215  and  _216
REMARK   84  A    between atoms: _215  and  _218
REMARK   85  A    between atoms: _218  and  _219
REMARK   86  A    between atoms: _222  and  _224
REMARK   87  A    between atoms: _224  and  _225
REMARK   88  A    between atoms: _224  and  _227
REMARK   89  A    between atoms: _227  and  _228
REMARK   90  A    between atoms: _228  and  _229
REMARK   91  A    between atoms: _229  and  _230
REMARK   92  A    between atoms: _239  and  _241
REMARK   93  A    between atoms: _241  and  _242
REMARK   94  A    between atoms: _241  and  _244
REMARK   95  A    between atoms: _244  and  _245
REMARK   96  A    between atoms: _248  and  _250
REMARK   97  A    between atoms: _250  and  _251
REMARK   98  A    between atoms: _250  and  _253
REMARK   99  A    between atoms: _253  and  _254
REMARK  100  A    between atoms: _254  and  _255
REMARK  101  A    between atoms: _255  and  _256
REMARK  102  A    between atoms: _265  and  _267
REMARK  103  A    between atoms: _267  and  _268
REMARK  104  A    between atoms: _267  and  _270
REMARK  105  A    between atoms: _270  and  _271
REMARK  106  A    between atoms: _274  and  _276
REMARK  107  A    between atoms: _276  and  _277
REMARK  108  A    between atoms: _276  and  _279
REMARK  109  A    between atoms: _279  and  _280
REMARK                            x       y       z     vdW  Elec       q    Type
REMARK                         _______ _______ _______ _____ _____    ______ ____
ROOT
ATOM      1  CA  THR A   2      19.052   4.114 136.696  0.00  0.00    +0.176 C 
ENDROOT
BRANCH   1   4
ATOM      2  C   ARG A   1      21.280   4.999 137.086  0.00  0.00    +0.238 C 
ATOM      3  O   ARG A   1      20.877   5.877 137.753  0.00  0.00    -0.274 OA
ATOM      4  N   THR A   2      20.480   4.164 136.443  0.00  0.00    -0.295 N 
ATOM      5  H   THR A   2      20.888   3.523 135.733  0.00  0.00    +0.150 HD
BRANCH   2   6
ATOM      6  CA  ARG A   1      22.764   4.770 136.862  0.00  0.00    +0.145 C 
BRANCH   6   7
ATOM      7  N   ARG A   1      23.584   5.936 137.136  0.00  0.00    -0.238 NA
ATOM      8  H   ARG A   1      23.283   6.580 137.896  0.00  0.00    +0.142 HD
ENDBRANCH   6   7
BRANCH   6   9
ATOM      9  CB  ARG A   1      23.268   3.553 137.626  0.00  0.00    +0.030 C 
BRANCH   9  10
ATOM     10  CG  ARG A   1      22.794   3.502 138.994  0.00  0.00    +0.045 C 
BRANCH  10  11
ATOM     11  CD  ARG A   1      23.908   3.634 140.043  0.00  0.00    +0.174 C 
BRANCH  11  12
ATOM     12  NE  ARG A   1      23.955   2.380 140.697  0.00  0.00    -0.265 N 
ATOM     13  CZ  ARG A   1      23.518   2.098 141.900  0.00  0.00    +0.342 C 
ATOM     14  NH2 ARG A   1      23.128   3.030 142.713  0.00  0.00    -0.292 N 
ATOM     15 HH21 ARG A   1      22.785   2.781 143.663  0.00  0.00    +0.255 HD
ATOM     16 HH22 ARG A   1      23.158   4.026 142.415  0.00  0.00    +0.255 HD
ATOM     17  NH1 ARG A   1      23.512   0.852 142.275  0.00  0.00    -0.292 N 
ATOM     18 HH11 ARG A   1      23.171   0.596 143.224  0.00  0.00    +0.255 HD
ATOM     19 HH12 ARG A   1      23.848   0.112 141.626  0.00  0.00    +0.255 HD
ATOM     20  HE  ARG A   1      24.383   1.596 140.165  0.00  0.00    +0.259 HD
ENDBRANCH  11  12
ENDBRANCH  10  11
ENDBRANCH   9  10
ENDBRANCH   6   9
ENDBRANCH   2   6
ENDBRANCH   1   4
BRANCH   1  21
ATOM     21  C   THR A   2      18.851   3.000 137.711  0.00  0.00    +0.243 C 
ATOM     22  N   LEU A   3      18.025   3.239 138.722  0.00  0.00    -0.297 N 
ATOM     23  H   LEU A   3      17.561   4.166 138.806  0.00  0.00    +0.150 HD
ATOM     24  O   THR A   2      19.462   1.937 137.594  0.00  0.00    -0.273 OA
BRANCH  22  25
ATOM     25  CA  LEU A   3      17.769   2.202 139.714  0.00  0.00    +0.149 C 
BRANCH  25  26
ATOM     26  C   LEU A   3      16.739   1.211 139.193  0.00  0.00    +0.241 C 
ATOM     27  O   LEU A   3      15.576   1.237 139.588  0.00  0.00    -0.273 OA
ATOM     28  N   THR A   4      17.191   0.336 138.301  0.00  0.00    -0.296 N 
ATOM     29  H   THR A   4      18.199   0.353 138.047  0.00  0.00    +0.150 HD
BRANCH  28  30
ATOM     30  CA  THR A   4      16.323  -0.645 137.668  0.00  0.00    +0.164 C 
BRANCH  30  31
ATOM     31  CB  THR A   4      16.253  -0.436 136.145  0.00  0.00    +0.136 C 
ATOM     32  CG2 THR A   4      15.492   0.834 135.826  0.00  0.00    +0.034 C 
BRANCH  31  33
ATOM     33  OG1 THR A   4      17.577  -0.341 135.605  0.00  0.00    -0.382 OA
ATOM     34  HG1 THR A   4      18.072  -1.176 135.798  0.00  0.00    +0.210 HD
ENDBRANCH  31  33
ENDBRANCH  30  31
BRANCH  30  35
ATOM     35  C   THR A   4      16.813  -2.052 137.951  0.00  0.00    +0.229 C 
ATOM     36  O   THR A   4      17.816  -2.241 138.635  0.00  0.00    -0.286 OA
ENDBRANCH  30  35
ENDBRANCH  28  30
ENDBRANCH  25  26
BRANCH  25  37
ATOM     37  CB  LEU A   3      17.344   2.804 141.053  0.00  0.00    +0.029 C 
BRANCH  37  38
ATOM     38  CG  LEU A   3      18.463   3.607 141.713  0.00  0.00    +0.002 C 
ATOM     39  CD2 LEU A   3      18.173   3.868 143.181  0.00  0.00    +0.000 C 
ATOM     40  CD1 LEU A   3      19.791   2.884 141.543  0.00  0.00    +0.000 C 
ENDBRANCH  37  38
ENDBRANCH  25  37
ENDBRANCH  22  25
ENDBRANCH   1  21
BRANCH   1  41
ATOM     41  CB  THR A   2      18.266   3.782 135.416  0.00  0.00    +0.137 C 
ATOM     42  CG2 THR A   2      18.558   4.807 134.339  0.00  0.00    +0.034 C 
BRANCH  41  43
ATOM     43  OG1 THR A   2      18.644   2.483 134.942  0.00  0.00    -0.382 OA
ATOM     44  HG1 THR A   2      19.614   2.475 134.744  0.00  0.00    +0.210 HD
ENDBRANCH  41  43
ENDBRANCH   1  41
TORSDOF 18
REMARK  Name = ../refined-set-2016/4n7u/4n7u_pocket.pdb
REMARK  109 active torsions:
REMARK  status: ('A' for Active; 'I' for Inactive)
REMARK    1  A    between atoms: _1  and  _3
REMARK    2  A    between atoms: _3  and  _4
REMARK    3  A    between atoms: _3  and  _6
REMARK    4  A    between atoms: _6  and  _7
REMARK    5  A    between atoms: _7  and  _8
REMARK    6  A    between atoms: _8  and  _9
REMARK    7  A    between atoms: _18  and  _20
REMARK    8  A    between atoms: _20  and  _21
REMARK    9  A    between atoms: _20  and  _23
REMARK   10  A    between atoms: _23  and  _24
REMARK   11  A    between atoms: _34  and  _36
REMARK   12  A    between atoms: _36  and  _37
REMARK   13  A    between atoms: _36  and  _39
REMARK   14  A    between atoms: _39  and  _40
REMARK   15  A    between atoms: _45  and  _47
REMARK   16  A    between atoms: _47  and  _48
REMARK   17  A    between atoms: _47  and  _50
REMARK   18  A    between atoms: _50  and  _51
REMARK   19  A    between atoms: _56  and  _57
REMARK   20  A    between atoms: _59  and  _61
REMARK   21  A    between atoms: _61  and  _62
REMARK   22  A    between atoms: _61  and  _64
REMARK   23  A    between atoms: _64  and  _65
REMARK   24  A    between atoms: _65  and  _66
REMARK   25  A    between atoms: _69  and  _71
REMARK   26  A    between atoms: _71  and  _72
REMARK   27  A    between atoms: _71  and  _74
REMARK   28  A    between atoms: _74  and  _75
REMARK   29  A    between atoms: _85  and  _87
REMARK   30  A    between atoms: _87  and  _88
REMARK   31  A    between atoms: _87  and  _90
REMARK   32  A    between atoms: _90  and  _91
REMARK   33  A    between atoms: _96  and  _98
REMARK   34  A    between atoms: _98  and  _99
REMARK   35  A    between atoms: _98  and  _101
REMARK   36  A    between atoms: _101  and  _102
REMARK   37  A    between atoms: _112  and  _114
REMARK   38  A    between atoms: _114  and  _115
REMARK   39  A    between atoms: _114  and  _117
REMARK   40  A    between atoms: _120  and  _122
REMARK   41  A    between atoms: _122  and  _123
REMARK   42  A    between atoms: _122  and  _125
REMARK   43  A    between atoms: _125  and  _126
REMARK   44  A    between atoms: _126  and  _127
REMARK   45  A    between atoms: _127  and  _128
REMARK   46  A    between atoms: _128  and  _129
REMARK   47  A    between atoms: _133  and  _135
REMARK   48  A    between atoms: _135  and  _136
REMARK   49  A    between atoms: _135  and  _138
REMARK   50  A    between atoms: _138  and  _139
REMARK   51  A    between atoms: _139  and  _140
REMARK   52  A    between atoms: _142  and  _144
REMARK   53  A    between atoms: _144  and  _145
REMARK   54  A    between atoms: _144  and  _147
REMARK   55  A    between atoms: _147  and  _148
REMARK   56  A    between atoms: _151  and  _153
REMARK   57  A    between atoms: _153  and  _154
REMARK   58  A    between atoms: _153  and  _156
REMARK   59  A    between atoms: _156  and  _157
REMARK   60  A    between atoms: _160  and  _162
REMARK   61  A    between atoms: _162  and  _163
REMARK   62  A    between atoms: _162  and  _165
REMARK   63  A    between atoms: _165  and  _166
REMARK   64  A    between atoms: _169  and  _171
REMARK   65  A    between atoms: _171  and  _172
REMARK   66  A    between atoms: _171  and  _174
REMARK   67  A    between atoms: _174  and  _175
REMARK   68  A    between atoms: _178  and  _180
REMARK   69  A    between atoms: _180  and  _181
REMARK   70  A    between atoms: _180  and  _183
REMARK   71  A    between atoms: _183  and  _184
REMARK   72  A    between atoms: _184  and  _185
REMARK   73  A    between atoms: _185  and  _186
REMARK   74  A    between atoms: _195  and  _197
REMARK   75  A    between atoms: _197  and  _198
REMARK   76  A    between atoms: _197  and  _200
REMARK   77  A    between atoms: _200  and  _201
REMARK   78  A    between atoms: _204  and  _206
REMARK   79  A    between atoms: _206  and  _207
REMARK   80  A    between atoms: _206  and  _209
REMARK   81  A    between atoms: _209  and  _210
REMARK   82  A    between atoms: _213  and  _215
REMARK   83  A    between atoms: _215  and  _216
REMARK   84  A    between atoms: _215  and  _218
REMARK   85  A    between atoms: _218  and  _219
REMARK   86  A    between atoms: _222  and  _224
REMARK   87  A    between atoms: _224  and  _225
REMARK   88  A    between atoms: _224  and  _227
REMARK   89  A    between atoms: _227  and  _228
REMARK   90  A    between atoms: _228  and  _229
REMARK   91  A    between atoms: _229  and  _230
REMARK   92  A    between atoms: _239  and  _241
REMARK   93  A    between atoms: _241  and  _242
REMARK   94  A    between atoms: _241  and  _244
REMARK   95  A    between atoms: _244  and  _245
REMARK   96  A    between atoms: _248  and  _250
REMARK   97  A    between atoms: _250  and  _251
REMARK   98  A    between atoms: _250  and  _253
REMARK   99  A    between atoms: _253  and  _254
REMARK  100  A    between atoms: _254  and  _255
REMARK  101  A    between atoms: _255  and  _256
REMARK  102  A    between atoms: _265  and  _267
REMARK  103  A    between atoms: _267  and  _268
REMARK  104  A    between atoms: _267  and  _270
REMARK  105  A    between atoms: _270  and  _271
REMARK  106  A    between atoms: _274  and  _276
REMARK  107  A    between atoms: _276  and  _277
REMARK  108  A    between atoms: _276  and  _279
REMARK  109  A    between atoms: _279  and  _280
REMARK                            x       y       z     vdW  Elec       q    Type
REMARK                         _______ _______ _______ _____ _____    ______ ____
ROOT
ATOM      1  CA  ARG A   1      20.668  -1.397 137.120  0.00  0.00    +0.145 C 
ENDROOT
BRANCH   1   2
ATOM      2  C   ARG A   1      21.325  -1.149 135.764  0.00  0.00    +0.238 C 
ATOM      3  O   ARG A   1      22.052  -2.002 135.253  0.00  0.00    -0.274 OA
ATOM      4  N   THR A   2      21.064   0.015 135.177  0.00  0.00    -0.296 N 
ATOM      5  H   THR A   2      20.424   0.690 135.642  0.00  0.00    +0.150 HD
BRANCH   4   6
ATOM      6  CA  THR A   2      21.661   0.363 133.889  0.00  0.00    +0.164 C 
BRANCH   6   7
ATOM      7  C   THR A   2      22.561   1.583 134.011  0.00  0.00    +0.229 C 
ATOM      8  O   THR A   2      22.175   2.596 134.594  0.00  0.00    -0.286 OA
ENDBRANCH   6   7
BRANCH   6   9
ATOM      9  CB  THR A   2      20.599   0.668 132.827  0.00  0.00    +0.136 C 
ATOM     10  CG2 THR A   2      19.418  -0.275 132.959  0.00  0.00    +0.034 C 
BRANCH   9  11
ATOM     11  OG1 THR A   2      20.154   2.022 132.970  0.00  0.00    -0.382 OA
ATOM     12  HG1 THR A   2      19.765   2.147 133.872  0.00  0.00    +0.210 HD
ENDBRANCH   9  11
ENDBRANCH   6   9
ENDBRANCH   4   6
ENDBRANCH   1   2
BRANCH   1  13
ATOM     13  N   ARG A   1      20.244  -2.794 137.240  0.00  0.00    -0.238 NA
ATOM     14  H   ARG A   1      20.601  -3.364 138.033  0.00  0.00    +0.142 HD
ENDBRANCH   1  13
BRANCH   1  15
ATOM     15  CB  ARG A   1      21.648  -1.019 138.241  0.00  0.00    +0.030 C 
BRANCH  15  16
ATOM     16  CG  ARG A   1      21.015  -0.416 139.496  0.00  0.00    +0.045 C 
BRANCH  16  17
ATOM     17  CD  ARG A   1      20.332  -1.456 140.376  0.00  0.00    +0.174 C 
BRANCH  17  18
ATOM     18  NE  ARG A   1      19.918  -0.868 141.648  0.00  0.00    -0.265 N 
ATOM     19  HE  ARG A   1      20.661  -0.620 142.333  0.00  0.00    +0.259 HD
ATOM     20  CZ  ARG A   1      18.656  -0.629 141.988  0.00  0.00    +0.342 C 
ATOM     21  NH2 ARG A   1      18.373  -0.079 143.161  0.00  0.00    -0.292 N 
ATOM     22 HH21 ARG A   1      19.140   0.167 143.819  0.00  0.00    +0.255 HD
ATOM     23 HH22 ARG A   1      17.384   0.106 143.423  0.00  0.00    +0.255 HD
ATOM     24  NH1 ARG A   1      17.676  -0.953 141.159  0.00  0.00    -0.292 N 
ATOM     25 HH11 ARG A   1      16.688  -0.766 141.424  0.00  0.00    +0.255 HD
ATOM     26 HH12 ARG A   1      17.894  -1.394 140.243  0.00  0.00    +0.255 HD
ENDBRANCH  17  18
ENDBRANCH  16  17
ENDBRANCH  15  16
ENDBRANCH   1  15
TORSDOF 10
REMARK  Name = ../refined-set-2016/4n7u/4n7u_pocket.pdb
REMARK  109 active torsions:
REMARK  status: ('A' for Active; 'I' for Inactive)
REMARK    1  A    between atoms: _1  and  _3
REMARK    2  A    between atoms: _3  and  _4
REMARK    3  A    between atoms: _3  and  _6
REMARK    4  A    between atoms: _6  and  _7
REMARK    5  A    between atoms: _7  and  _8
REMARK    6  A    between atoms: _8  and  _9
REMARK    7  A    between atoms: _18  and  _20
REMARK    8  A    between atoms: _20  and  _21
REMARK    9  A    between atoms: _20  and  _23
REMARK   10  A    between atoms: _23  and  _24
REMARK   11  A    between atoms: _34  and  _36
REMARK   12  A    between atoms: _36  and  _37
REMARK   13  A    between atoms: _36  and  _39
REMARK   14  A    between atoms: _39  and  _40
REMARK   15  A    between atoms: _45  and  _47
REMARK   16  A    between atoms: _47  and  _48
REMARK   17  A    between atoms: _47  and  _50
REMARK   18  A    between atoms: _50  and  _51
REMARK   19  A    between atoms: _56  and  _57
REMARK   20  A    between atoms: _59  and  _61
REMARK   21  A    between atoms: _61  and  _62
REMARK   22  A    between atoms: _61  and  _64
REMARK   23  A    between atoms: _64  and  _65
REMARK   24  A    between atoms: _65  and  _66
REMARK   25  A    between atoms: _69  and  _71
REMARK   26  A    between atoms: _71  and  _72
REMARK   27  A    between atoms: _71  and  _74
REMARK   28  A    between atoms: _74  and  _75
REMARK   29  A    between atoms: _85  and  _87
REMARK   30  A    between atoms: _87  and  _88
REMARK   31  A    between atoms: _87  and  _90
REMARK   32  A    between atoms: _90  and  _91
REMARK   33  A    between atoms: _96  and  _98
REMARK   34  A    between atoms: _98  and  _99
REMARK   35  A    between atoms: _98  and  _101
REMARK   36  A    between atoms: _101  and  _102
REMARK   37  A    between atoms: _112  and  _114
REMARK   38  A    between atoms: _114  and  _115
REMARK   39  A    between atoms: _114  and  _117
REMARK   40  A    between atoms: _120  and  _122
REMARK   41  A    between atoms: _122  and  _123
REMARK   42  A    between atoms: _122  and  _125
REMARK   43  A    between atoms: _125  and  _126
REMARK   44  A    between atoms: _126  and  _127
REMARK   45  A    between atoms: _127  and  _128
REMARK   46  A    between atoms: _128  and  _129
REMARK   47  A    between atoms: _133  and  _135
REMARK   48  A    between atoms: _135  and  _136
REMARK   49  A    between atoms: _135  and  _138
REMARK   50  A    between atoms: _138  and  _139
REMARK   51  A    between atoms: _139  and  _140
REMARK   52  A    between atoms: _142  and  _144
REMARK   53  A    between atoms: _144  and  _145
REMARK   54  A    between atoms: _144  and  _147
REMARK   55  A    between atoms: _147  and  _148
REMARK   56  A    between atoms: _151  and  _153
REMARK   57  A    between atoms: _153  and  _154
REMARK   58  A    between atoms: _153  and  _156
REMARK   59  A    between atoms: _156  and  _157
REMARK   60  A    between atoms: _160  and  _162
REMARK   61  A    between atoms: _162  and  _163
REMARK   62  A    between atoms: _162  and  _165
REMARK   63  A    between atoms: _165  and  _166
REMARK   64  A    between atoms: _169  and  _171
REMARK   65  A    between atoms: _171  and  _172
REMARK   66  A    between atoms: _171  and  _174
REMARK   67  A    between atoms: _174  and  _175
REMARK   68  A    between atoms: _178  and  _180
REMARK   69  A    between atoms: _180  and  _181
REMARK   70  A    between atoms: _180  and  _183
REMARK   71  A    between atoms: _183  and  _184
REMARK   72  A    between atoms: _184  and  _185
REMARK   73  A    between atoms: _185  and  _186
REMARK   74  A    between atoms: _195  and  _197
REMARK   75  A    between atoms: _197  and  _198
REMARK   76  A    between atoms: _197  and  _200
REMARK   77  A    between atoms: _200  and  _201
REMARK   78  A    between atoms: _204  and  _206
REMARK   79  A    between atoms: _206  and  _207
REMARK   80  A    between atoms: _206  and  _209
REMARK   81  A    between atoms: _209  and  _210
REMARK   82  A    between atoms: _213  and  _215
REMARK   83  A    between atoms: _215  and  _216
REMARK   84  A    between atoms: _215  and  _218
REMARK   85  A    between atoms: _218  and  _219
REMARK   86  A    between atoms: _222  and  _224
REMARK   87  A    between atoms: _224  and  _225
REMARK   88  A    between atoms: _224  and  _227
REMARK   89  A    between atoms: _227  and  _228
REMARK   90  A    between atoms: _228  and  _229
REMARK   91  A    between atoms: _229  and  _230
REMARK   92  A    between atoms: _239  and  _241
REMARK   93  A    between atoms: _241  and  _242
REMARK   94  A    between atoms: _241  and  _244
REMARK   95  A    between atoms: _244  and  _245
REMARK   96  A    between atoms: _248  and  _250
REMARK   97  A    between atoms: _250  and  _251
REMARK   98  A    between atoms: _250  and  _253
REMARK   99  A    between atoms: _253  and  _254
REMARK  100  A    between atoms: _254  and  _255
REMARK  101  A    between atoms: _255  and  _256
REMARK  102  A    between atoms: _265  and  _267
REMARK  103  A    between atoms: _267  and  _268
REMARK  104  A    between atoms: _267  and  _270
REMARK  105  A    between atoms: _270  and  _271
REMARK  106  A    between atoms: _274  and  _276
REMARK  107  A    between atoms: _276  and  _277
REMARK  108  A    between atoms: _276  and  _279
REMARK  109  A    between atoms: _279  and  _280
REMARK                            x       y       z     vdW  Elec       q    Type
REMARK                         _______ _______ _______ _____ _____    ______ ____
ROOT
ATOM      1  NE  ARG A   1      19.397   5.367 147.584  0.00  0.00    -0.265 N 
ATOM      2  HE  ARG A   1      20.087   6.143 147.518  0.00  0.00    +0.259 HD
ATOM      3  CZ  ARG A   1      19.671   4.236 146.940  0.00  0.00    +0.342 C 
ATOM      4  NH2 ARG A   1      18.823   3.219 146.989  0.00  0.00    -0.292 N 
ATOM      5 HH21 ARG A   1      17.940   3.304 147.532  0.00  0.00    +0.255 HD
ATOM      6 HH22 ARG A   1      19.040   2.336 146.484  0.00  0.00    +0.255 HD
ATOM      7  NH1 ARG A   1      20.796   4.123 146.248  0.00  0.00    -0.292 N 
ATOM      8 HH11 ARG A   1      21.464   4.919 146.209  0.00  0.00    +0.255 HD
ATOM      9 HH12 ARG A   1      21.010   3.239 145.744  0.00  0.00    +0.255 HD
ENDROOT
BRANCH   1  10
ATOM     10  CD  ARG A   1      18.190   5.592 148.378  0.00  0.00    +0.174 C 
BRANCH  10  11
ATOM     11  CG  ARG A   1      18.186   6.958 149.059  0.00  0.00    +0.045 C 
BRANCH  11  12
ATOM     12  CB  ARG A   1      17.601   8.049 148.165  0.00  0.00    +0.029 C 
BRANCH  12  13
ATOM     13  CA  ARG A   1      17.745   9.469 148.724  0.00  0.00    +0.133 C 
BRANCH  13  14
ATOM     14  N   ARG A   1      16.964  10.406 147.927  0.00  0.00    -0.239 NA
ATOM     15  H   ARG A   1      17.351  10.758 147.028  0.00  0.00    +0.142 HD
ENDBRANCH  13  14
BRANCH  13  16
ATOM     16  C   ARG A   1      19.217   9.864 148.754  0.00  0.00    +0.224 C 
ATOM     17  O   ARG A   1      19.819  10.117 147.710  0.00  0.00    -0.287 OA
ENDBRANCH  13  16
ENDBRANCH  12  13
ENDBRANCH  11  12
ENDBRANCH  10  11
ENDBRANCH   1  10
TORSDOF 6
REMARK  Name = ../refined-set-2016/4n7u/4n7u_pocket.pdb
REMARK  109 active torsions:
REMARK  status: ('A' for Active; 'I' for Inactive)
REMARK    1  A    between atoms: _1  and  _3
REMARK    2  A    between atoms: _3  and  _4
REMARK    3  A    between atoms: _3  and  _6
REMARK    4  A    between atoms: _6  and  _7
REMARK    5  A    between atoms: _7  and  _8
REMARK    6  A    between atoms: _8  and  _9
REMARK    7  A    between atoms: _18  and  _20
REMARK    8  A    between atoms: _20  and  _21
REMARK    9  A    between atoms: _20  and  _23
REMARK   10  A    between atoms: _23  and  _24
REMARK   11  A    between atoms: _34  and  _36
REMARK   12  A    between atoms: _36  and  _37
REMARK   13  A    between atoms: _36  and  _39
REMARK   14  A    between atoms: _39  and  _40
REMARK   15  A    between atoms: _45  and  _47
REMARK   16  A    between atoms: _47  and  _48
REMARK   17  A    between atoms: _47  and  _50
REMARK   18  A    between atoms: _50  and  _51
REMARK   19  A    between atoms: _56  and  _57
REMARK   20  A    between atoms: _59  and  _61
REMARK   21  A    between atoms: _61  and  _62
REMARK   22  A    between atoms: _61  and  _64
REMARK   23  A    between atoms: _64  and  _65
REMARK   24  A    between atoms: _65  and  _66
REMARK   25  A    between atoms: _69  and  _71
REMARK   26  A    between atoms: _71  and  _72
REMARK   27  A    between atoms: _71  and  _74
REMARK   28  A    between atoms: _74  and  _75
REMARK   29  A    between atoms: _85  and  _87
REMARK   30  A    between atoms: _87  and  _88
REMARK   31  A    between atoms: _87  and  _90
REMARK   32  A    between atoms: _90  and  _91
REMARK   33  A    between atoms: _96  and  _98
REMARK   34  A    between atoms: _98  and  _99
REMARK   35  A    between atoms: _98  and  _101
REMARK   36  A    between atoms: _101  and  _102
REMARK   37  A    between atoms: _112  and  _114
REMARK   38  A    between atoms: _114  and  _115
REMARK   39  A    between atoms: _114  and  _117
REMARK   40  A    between atoms: _120  and  _122
REMARK   41  A    between atoms: _122  and  _123
REMARK   42  A    between atoms: _122  and  _125
REMARK   43  A    between atoms: _125  and  _126
REMARK   44  A    between atoms: _126  and  _127
REMARK   45  A    between atoms: _127  and  _128
REMARK   46  A    between atoms: _128  and  _129
REMARK   47  A    between atoms: _133  and  _135
REMARK   48  A    between atoms: _135  and  _136
REMARK   49  A    between atoms: _135  and  _138
REMARK   50  A    between atoms: _138  and  _139
REMARK   51  A    between atoms: _139  and  _140
REMARK   52  A    between atoms: _142  and  _144
REMARK   53  A    between atoms: _144  and  _145
REMARK   54  A    between atoms: _144  and  _147
REMARK   55  A    between atoms: _147  and  _148
REMARK   56  A    between atoms: _151  and  _153
REMARK   57  A    between atoms: _153  and  _154
REMARK   58  A    between atoms: _153  and  _156
REMARK   59  A    between atoms: _156  and  _157
REMARK   60  A    between atoms: _160  and  _162
REMARK   61  A    between atoms: _162  and  _163
REMARK   62  A    between atoms: _162  and  _165
REMARK   63  A    between atoms: _165  and  _166
REMARK   64  A    between atoms: _169  and  _171
REMARK   65  A    between atoms: _171  and  _172
REMARK   66  A    between atoms: _171  and  _174
REMARK   67  A    between atoms: _174  and  _175
REMARK   68  A    between atoms: _178  and  _180
REMARK   69  A    between atoms: _180  and  _181
REMARK   70  A    between atoms: _180  and  _183
REMARK   71  A    between atoms: _183  and  _184
REMARK   72  A    between atoms: _184  and  _185
REMARK   73  A    between atoms: _185  and  _186
REMARK   74  A    between atoms: _195  and  _197
REMARK   75  A    between atoms: _197  and  _198
REMARK   76  A    between atoms: _197  and  _200
REMARK   77  A    between atoms: _200  and  _201
REMARK   78  A    between atoms: _204  and  _206
REMARK   79  A    between atoms: _206  and  _207
REMARK   80  A    between atoms: _206  and  _209
REMARK   81  A    between atoms: _209  and  _210
REMARK   82  A    between atoms: _213  and  _215
REMARK   83  A    between atoms: _215  and  _216
REMARK   84  A    between atoms: _215  and  _218
REMARK   85  A    between atoms: _218  and  _219
REMARK   86  A    between atoms: _222  and  _224
REMARK   87  A    between atoms: _224  and  _225
REMARK   88  A    between atoms: _224  and  _227
REMARK   89  A    between atoms: _227  and  _228
REMARK   90  A    between atoms: _228  and  _229
REMARK   91  A    between atoms: _229  and  _230
REMARK   92  A    between atoms: _239  and  _241
REMARK   93  A    between atoms: _241  and  _242
REMARK   94  A    between atoms: _241  and  _244
REMARK   95  A    between atoms: _244  and  _245
REMARK   96  A    between atoms: _248  and  _250
REMARK   97  A    between atoms: _250  and  _251
REMARK   98  A    between atoms: _250  and  _253
REMARK   99  A    between atoms: _253  and  _254
REMARK  100  A    between atoms: _254  and  _255
REMARK  101  A    between atoms: _255  and  _256
REMARK  102  A    between atoms: _265  and  _267
REMARK  103  A    between atoms: _267  and  _268
REMARK  104  A    between atoms: _267  and  _270
REMARK  105  A    between atoms: _270  and  _271
REMARK  106  A    between atoms: _274  and  _276
REMARK  107  A    between atoms: _276  and  _277
REMARK  108  A    between atoms: _276  and  _279
REMARK  109  A    between atoms: _279  and  _280
REMARK                            x       y       z     vdW  Elec       q    Type
REMARK                         _______ _______ _______ _____ _____    ______ ____
ROOT
ATOM      1  C   LEU A   1      24.727   8.032 152.364  0.00  0.00    +0.238 C 
ATOM      2  O   LEU A   1      25.022   7.634 153.489  0.00  0.00    -0.274 OA
ATOM      3  N   THR A   2      25.445   8.930 151.701  0.00  0.00    -0.296 N 
ATOM      4  H   THR A   2      25.056   9.353 150.834  0.00  0.00    +0.150 HD
ENDROOT
BRANCH   1   5
ATOM      5  CA  LEU A   1      23.498   7.500 151.650  0.00  0.00    +0.145 C 
BRANCH   5   6
ATOM      6  N   LEU A   1      22.897   8.510 150.788  0.00  0.00    -0.238 NA
ATOM      7  H   LEU A   1      23.345   8.733 149.876  0.00  0.00    +0.142 HD
ENDBRANCH   5   6
BRANCH   5   8
ATOM      8  CB  LEU A   1      23.896   6.263 150.842  0.00  0.00    +0.026 C 
BRANCH   8   9
ATOM      9  CG  LEU A   1      22.818   5.554 150.026  0.00  0.00    +0.002 C 
ATOM     10  CD2 LEU A   1      21.479   5.593 150.732  0.00  0.00    +0.000 C 
ATOM     11  CD1 LEU A   1      23.225   4.120 149.723  0.00  0.00    +0.000 C 
ENDBRANCH   8   9
ENDBRANCH   5   8
ENDBRANCH   1   5
BRANCH   3  12
ATOM     12  CA  THR A   2      26.766   9.335 152.161  0.00  0.00    +0.164 C 
BRANCH  12  13
ATOM     13  C   THR A   2      26.760  10.537 153.094  0.00  0.00    +0.229 C 
ATOM     14  O   THR A   2      25.813  11.325 153.121  0.00  0.00    -0.286 OA
ENDBRANCH  12  13
BRANCH  12  15
ATOM     15  CB  THR A   2      27.695   9.634 150.974  0.00  0.00    +0.136 C 
ATOM     16  CG2 THR A   2      27.909   8.381 150.147  0.00  0.00    +0.034 C 
BRANCH  15  17
ATOM     17  OG1 THR A   2      27.105  10.645 150.148  0.00  0.00    -0.382 OA
ATOM     18  HG1 THR A   2      27.705  10.837 149.384  0.00  0.00    +0.210 HD
ENDBRANCH  15  17
ENDBRANCH  12  15
ENDBRANCH   3  12
TORSDOF 8
REMARK  Name = ../refined-set-2016/4n7u/4n7u_pocket.pdb
REMARK  109 active torsions:
REMARK  status: ('A' for Active; 'I' for Inactive)
REMARK    1  A    between atoms: _1  and  _3
REMARK    2  A    between atoms: _3  and  _4
REMARK    3  A    between atoms: _3  and  _6
REMARK    4  A    between atoms: _6  and  _7
REMARK    5  A    between atoms: _7  and  _8
REMARK    6  A    between atoms: _8  and  _9
REMARK    7  A    between atoms: _18  and  _20
REMARK    8  A    between atoms: _20  and  _21
REMARK    9  A    between atoms: _20  and  _23
REMARK   10  A    between atoms: _23  and  _24
REMARK   11  A    between atoms: _34  and  _36
REMARK   12  A    between atoms: _36  and  _37
REMARK   13  A    between atoms: _36  and  _39
REMARK   14  A    between atoms: _39  and  _40
REMARK   15  A    between atoms: _45  and  _47
REMARK   16  A    between atoms: _47  and  _48
REMARK   17  A    between atoms: _47  and  _50
REMARK   18  A    between atoms: _50  and  _51
REMARK   19  A    between atoms: _56  and  _57
REMARK   20  A    between atoms: _59  and  _61
REMARK   21  A    between atoms: _61  and  _62
REMARK   22  A    between atoms: _61  and  _64
REMARK   23  A    between atoms: _64  and  _65
REMARK   24  A    between atoms: _65  and  _66
REMARK   25  A    between atoms: _69  and  _71
REMARK   26  A    between atoms: _71  and  _72
REMARK   27  A    between atoms: _71  and  _74
REMARK   28  A    between atoms: _74  and  _75
REMARK   29  A    between atoms: _85  and  _87
REMARK   30  A    between atoms: _87  and  _88
REMARK   31  A    between atoms: _87  and  _90
REMARK   32  A    between atoms: _90  and  _91
REMARK   33  A    between atoms: _96  and  _98
REMARK   34  A    between atoms: _98  and  _99
REMARK   35  A    between atoms: _98  and  _101
REMARK   36  A    between atoms: _101  and  _102
REMARK   37  A    between atoms: _112  and  _114
REMARK   38  A    between atoms: _114  and  _115
REMARK   39  A    between atoms: _114  and  _117
REMARK   40  A    between atoms: _120  and  _122
REMARK   41  A    between atoms: _122  and  _123
REMARK   42  A    between atoms: _122  and  _125
REMARK   43  A    between atoms: _125  and  _126
REMARK   44  A    between atoms: _126  and  _127
REMARK   45  A    between atoms: _127  and  _128
REMARK   46  A    between atoms: _128  and  _129
REMARK   47  A    between atoms: _133  and  _135
REMARK   48  A    between atoms: _135  and  _136
REMARK   49  A    between atoms: _135  and  _138
REMARK   50  A    between atoms: _138  and  _139
REMARK   51  A    between atoms: _139  and  _140
REMARK   52  A    between atoms: _142  and  _144
REMARK   53  A    between atoms: _144  and  _145
REMARK   54  A    between atoms: _144  and  _147
REMARK   55  A    between atoms: _147  and  _148
REMARK   56  A    between atoms: _151  and  _153
REMARK   57  A    between atoms: _153  and  _154
REMARK   58  A    between atoms: _153  and  _156
REMARK   59  A    between atoms: _156  and  _157
REMARK   60  A    between atoms: _160  and  _162
REMARK   61  A    between atoms: _162  and  _163
REMARK   62  A    between atoms: _162  and  _165
REMARK   63  A    between atoms: _165  and  _166
REMARK   64  A    between atoms: _169  and  _171
REMARK   65  A    between atoms: _171  and  _172
REMARK   66  A    between atoms: _171  and  _174
REMARK   67  A    between atoms: _174  and  _175
REMARK   68  A    between atoms: _178  and  _180
REMARK   69  A    between atoms: _180  and  _181
REMARK   70  A    between atoms: _180  and  _183
REMARK   71  A    between atoms: _183  and  _184
REMARK   72  A    between atoms: _184  and  _185
REMARK   73  A    between atoms: _185  and  _186
REMARK   74  A    between atoms: _195  and  _197
REMARK   75  A    between atoms: _197  and  _198
REMARK   76  A    between atoms: _197  and  _200
REMARK   77  A    between atoms: _200  and  _201
REMARK   78  A    between atoms: _204  and  _206
REMARK   79  A    between atoms: _206  and  _207
REMARK   80  A    between atoms: _206  and  _209
REMARK   81  A    between atoms: _209  and  _210
REMARK   82  A    between atoms: _213  and  _215
REMARK   83  A    between atoms: _215  and  _216
REMARK   84  A    between atoms: _215  and  _218
REMARK   85  A    between atoms: _218  and  _219
REMARK   86  A    between atoms: _222  and  _224
REMARK   87  A    between atoms: _224  and  _225
REMARK   88  A    between atoms: _224  and  _227
REMARK   89  A    between atoms: _227  and  _228
REMARK   90  A    between atoms: _228  and  _229
REMARK   91  A    between atoms: _229  and  _230
REMARK   92  A    between atoms: _239  and  _241
REMARK   93  A    between atoms: _241  and  _242
REMARK   94  A    between atoms: _241  and  _244
REMARK   95  A    between atoms: _244  and  _245
REMARK   96  A    between atoms: _248  and  _250
REMARK   97  A    between atoms: _250  and  _251
REMARK   98  A    between atoms: _250  and  _253
REMARK   99  A    between atoms: _253  and  _254
REMARK  100  A    between atoms: _254  and  _255
REMARK  101  A    between atoms: _255  and  _256
REMARK  102  A    between atoms: _265  and  _267
REMARK  103  A    between atoms: _267  and  _268
REMARK  104  A    between atoms: _267  and  _270
REMARK  105  A    between atoms: _270  and  _271
REMARK  106  A    between atoms: _274  and  _276
REMARK  107  A    between atoms: _276  and  _277
REMARK  108  A    between atoms: _276  and  _279
REMARK  109  A    between atoms: _279  and  _280
REMARK                            x       y       z     vdW  Elec       q    Type
REMARK                         _______ _______ _______ _____ _____    ______ ____
ROOT
ATOM      1  O   HOH     1      21.118   7.685 147.214  0.00  0.00    +0.000 OA
ENDROOT
TORSDOF 0
REMARK  Name = ../refined-set-2016/4n7u/4n7u_pocket.pdb
REMARK  109 active torsions:
REMARK  status: ('A' for Active; 'I' for Inactive)
REMARK    1  A    between atoms: _1  and  _3
REMARK    2  A    between atoms: _3  and  _4
REMARK    3  A    between atoms: _3  and  _6
REMARK    4  A    between atoms: _6  and  _7
REMARK    5  A    between atoms: _7  and  _8
REMARK    6  A    between atoms: _8  and  _9
REMARK    7  A    between atoms: _18  and  _20
REMARK    8  A    between atoms: _20  and  _21
REMARK    9  A    between atoms: _20  and  _23
REMARK   10  A    between atoms: _23  and  _24
REMARK   11  A    between atoms: _34  and  _36
REMARK   12  A    between atoms: _36  and  _37
REMARK   13  A    between atoms: _36  and  _39
REMARK   14  A    between atoms: _39  and  _40
REMARK   15  A    between atoms: _45  and  _47
REMARK   16  A    between atoms: _47  and  _48
REMARK   17  A    between atoms: _47  and  _50
REMARK   18  A    between atoms: _50  and  _51
REMARK   19  A    between atoms: _56  and  _57
REMARK   20  A    between atoms: _59  and  _61
REMARK   21  A    between atoms: _61  and  _62
REMARK   22  A    between atoms: _61  and  _64
REMARK   23  A    between atoms: _64  and  _65
REMARK   24  A    between atoms: _65  and  _66
REMARK   25  A    between atoms: _69  and  _71
REMARK   26  A    between atoms: _71  and  _72
REMARK   27  A    between atoms: _71  and  _74
REMARK   28  A    between atoms: _74  and  _75
REMARK   29  A    between atoms: _85  and  _87
REMARK   30  A    between atoms: _87  and  _88
REMARK   31  A    between atoms: _87  and  _90
REMARK   32  A    between atoms: _90  and  _91
REMARK   33  A    between atoms: _96  and  _98
REMARK   34  A    between atoms: _98  and  _99
REMARK   35  A    between atoms: _98  and  _101
REMARK   36  A    between atoms: _101  and  _102
REMARK   37  A    between atoms: _112  and  _114
REMARK   38  A    between atoms: _114  and  _115
REMARK   39  A    between atoms: _114  and  _117
REMARK   40  A    between atoms: _120  and  _122
REMARK   41  A    between atoms: _122  and  _123
REMARK   42  A    between atoms: _122  and  _125
REMARK   43  A    between atoms: _125  and  _126
REMARK   44  A    between atoms: _126  and  _127
REMARK   45  A    between atoms: _127  and  _128
REMARK   46  A    between atoms: _128  and  _129
REMARK   47  A    between atoms: _133  and  _135
REMARK   48  A    between atoms: _135  and  _136
REMARK   49  A    between atoms: _135  and  _138
REMARK   50  A    between atoms: _138  and  _139
REMARK   51  A    between atoms: _139  and  _140
REMARK   52  A    between atoms: _142  and  _144
REMARK   53  A    between atoms: _144  and  _145
REMARK   54  A    between atoms: _144  and  _147
REMARK   55  A    between atoms: _147  and  _148
REMARK   56  A    between atoms: _151  and  _153
REMARK   57  A    between atoms: _153  and  _154
REMARK   58  A    between atoms: _153  and  _156
REMARK   59  A    between atoms: _156  and  _157
REMARK   60  A    between atoms: _160  and  _162
REMARK   61  A    between atoms: _162  and  _163
REMARK   62  A    between atoms: _162  and  _165
REMARK   63  A    between atoms: _165  and  _166
REMARK   64  A    between atoms: _169  and  _171
REMARK   65  A    between atoms: _171  and  _172
REMARK   66  A    between atoms: _171  and  _174
REMARK   67  A    between atoms: _174  and  _175
REMARK   68  A    between atoms: _178  and  _180
REMARK   69  A    between atoms: _180  and  _181
REMARK   70  A    between atoms: _180  and  _183
REMARK   71  A    between atoms: _183  and  _184
REMARK   72  A    between atoms: _184  and  _185
REMARK   73  A    between atoms: _185  and  _186
REMARK   74  A    between atoms: _195  and  _197
REMARK   75  A    between atoms: _197  and  _198
REMARK   76  A    between atoms: _197  and  _200
REMARK   77  A    between atoms: _200  and  _201
REMARK   78  A    between atoms: _204  and  _206
REMARK   79  A    between atoms: _206  and  _207
REMARK   80  A    between atoms: _206  and  _209
REMARK   81  A    between atoms: _209  and  _210
REMARK   82  A    between atoms: _213  and  _215
REMARK   83  A    between atoms: _215  and  _216
REMARK   84  A    between atoms: _215  and  _218
REMARK   85  A    between atoms: _218  and  _219
REMARK   86  A    between atoms: _222  and  _224
REMARK   87  A    between atoms: _224  and  _225
REMARK   88  A    between atoms: _224  and  _227
REMARK   89  A    between atoms: _227  and  _228
REMARK   90  A    between atoms: _228  and  _229
REMARK   91  A    between atoms: _229  and  _230
REMARK   92  A    between atoms: _239  and  _241
REMARK   93  A    between atoms: _241  and  _242
REMARK   94  A    between atoms: _241  and  _244
REMARK   95  A    between atoms: _244  and  _245
REMARK   96  A    between atoms: _248  and  _250
REMARK   97  A    between atoms: _250  and  _251
REMARK   98  A    between atoms: _250  and  _253
REMARK   99  A    between atoms: _253  and  _254
REMARK  100  A    between atoms: _254  and  _255
REMARK  101  A    between atoms: _255  and  _256
REMARK  102  A    between atoms: _265  and  _267
REMARK  103  A    between atoms: _267  and  _268
REMARK  104  A    between atoms: _267  and  _270
REMARK  105  A    between atoms: _270  and  _271
REMARK  106  A    between atoms: _274  and  _276
REMARK  107  A    between atoms: _276  and  _277
REMARK  108  A    between atoms: _276  and  _279
REMARK  109  A    between atoms: _279  and  _280
REMARK                            x       y       z     vdW  Elec       q    Type
REMARK                         _______ _______ _______ _____ _____    ______ ____
ROOT
ATOM      1  O   HOH     1      19.058   1.338 156.720  0.00  0.00    +0.000 OA
ENDROOT
TORSDOF 0
REMARK  Name = ../refined-set-2016/4n7u/4n7u_pocket.pdb
REMARK  109 active torsions:
REMARK  status: ('A' for Active; 'I' for Inactive)
REMARK    1  A    between atoms: _1  and  _3
REMARK    2  A    between atoms: _3  and  _4
REMARK    3  A    between atoms: _3  and  _6
REMARK    4  A    between atoms: _6  and  _7
REMARK    5  A    between atoms: _7  and  _8
REMARK    6  A    between atoms: _8  and  _9
REMARK    7  A    between atoms: _18  and  _20
REMARK    8  A    between atoms: _20  and  _21
REMARK    9  A    between atoms: _20  and  _23
REMARK   10  A    between atoms: _23  and  _24
REMARK   11  A    between atoms: _34  and  _36
REMARK   12  A    between atoms: _36  and  _37
REMARK   13  A    between atoms: _36  and  _39
REMARK   14  A    between atoms: _39  and  _40
REMARK   15  A    between atoms: _45  and  _47
REMARK   16  A    between atoms: _47  and  _48
REMARK   17  A    between atoms: _47  and  _50
REMARK   18  A    between atoms: _50  and  _51
REMARK   19  A    between atoms: _56  and  _57
REMARK   20  A    between atoms: _59  and  _61
REMARK   21  A    between atoms: _61  and  _62
REMARK   22  A    between atoms: _61  and  _64
REMARK   23  A    between atoms: _64  and  _65
REMARK   24  A    between atoms: _65  and  _66
REMARK   25  A    between atoms: _69  and  _71
REMARK   26  A    between atoms: _71  and  _72
REMARK   27  A    between atoms: _71  and  _74
REMARK   28  A    between atoms: _74  and  _75
REMARK   29  A    between atoms: _85  and  _87
REMARK   30  A    between atoms: _87  and  _88
REMARK   31  A    between atoms: _87  and  _90
REMARK   32  A    between atoms: _90  and  _91
REMARK   33  A    between atoms: _96  and  _98
REMARK   34  A    between atoms: _98  and  _99
REMARK   35  A    between atoms: _98  and  _101
REMARK   36  A    between atoms: _101  and  _102
REMARK   37  A    between atoms: _112  and  _114
REMARK   38  A    between atoms: _114  and  _115
REMARK   39  A    between atoms: _114  and  _117
REMARK   40  A    between atoms: _120  and  _122
REMARK   41  A    between atoms: _122  and  _123
REMARK   42  A    between atoms: _122  and  _125
REMARK   43  A    between atoms: _125  and  _126
REMARK   44  A    between atoms: _126  and  _127
REMARK   45  A    between atoms: _127  and  _128
REMARK   46  A    between atoms: _128  and  _129
REMARK   47  A    between atoms: _133  and  _135
REMARK   48  A    between atoms: _135  and  _136
REMARK   49  A    between atoms: _135  and  _138
REMARK   50  A    between atoms: _138  and  _139
REMARK   51  A    between atoms: _139  and  _140
REMARK   52  A    between atoms: _142  and  _144
REMARK   53  A    between atoms: _144  and  _145
REMARK   54  A    between atoms: _144  and  _147
REMARK   55  A    between atoms: _147  and  _148
REMARK   56  A    between atoms: _151  and  _153
REMARK   57  A    between atoms: _153  and  _154
REMARK   58  A    between atoms: _153  and  _156
REMARK   59  A    between atoms: _156  and  _157
REMARK   60  A    between atoms: _160  and  _162
REMARK   61  A    between atoms: _162  and  _163
REMARK   62  A    between atoms: _162  and  _165
REMARK   63  A    between atoms: _165  and  _166
REMARK   64  A    between atoms: _169  and  _171
REMARK   65  A    between atoms: _171  and  _172
REMARK   66  A    between atoms: _171  and  _174
REMARK   67  A    between atoms: _174  and  _175
REMARK   68  A    between atoms: _178  and  _180
REMARK   69  A    between atoms: _180  and  _181
REMARK   70  A    between atoms: _180  and  _183
REMARK   71  A    between atoms: _183  and  _184
REMARK   72  A    between atoms: _184  and  _185
REMARK   73  A    between atoms: _185  and  _186
REMARK   74  A    between atoms: _195  and  _197
REMARK   75  A    between atoms: _197  and  _198
REMARK   76  A    between atoms: _197  and  _200
REMARK   77  A    between atoms: _200  and  _201
REMARK   78  A    between atoms: _204  and  _206
REMARK   79  A    between atoms: _206  and  _207
REMARK   80  A    between atoms: _206  and  _209
REMARK   81  A    between atoms: _209  and  _210
REMARK   82  A    between atoms: _213  and  _215
REMARK   83  A    between atoms: _215  and  _216
REMARK   84  A    between atoms: _215  and  _218
REMARK   85  A    between atoms: _218  and  _219
REMARK   86  A    between atoms: _222  and  _224
REMARK   87  A    between atoms: _224  and  _225
REMARK   88  A    between atoms: _224  and  _227
REMARK   89  A    between atoms: _227  and  _228
REMARK   90  A    between atoms: _228  and  _229
REMARK   91  A    between atoms: _229  and  _230
REMARK   92  A    between atoms: _239  and  _241
REMARK   93  A    between atoms: _241  and  _242
REMARK   94  A    between atoms: _241  and  _244
REMARK   95  A    between atoms: _244  and  _245
REMARK   96  A    between atoms: _248  and  _250
REMARK   97  A    between atoms: _250  and  _251
REMARK   98  A    between atoms: _250  and  _253
REMARK   99  A    between atoms: _253  and  _254
REMARK  100  A    between atoms: _254  and  _255
REMARK  101  A    between atoms: _255  and  _256
REMARK  102  A    between atoms: _265  and  _267
REMARK  103  A    between atoms: _267  and  _268
REMARK  104  A    between atoms: _267  and  _270
REMARK  105  A    between atoms: _270  and  _271
REMARK  106  A    between atoms: _274  and  _276
REMARK  107  A    between atoms: _276  and  _277
REMARK  108  A    between atoms: _276  and  _279
REMARK  109  A    between atoms: _279  and  _280
REMARK                            x       y       z     vdW  Elec       q    Type
REMARK                         _______ _______ _______ _____ _____    ______ ____
ROOT
ATOM      1  O   HOH     1      13.950   3.143 140.404  0.00  0.00    +0.000 OA
ENDROOT
TORSDOF 0
REMARK  Name = ../refined-set-2016/4n7u/4n7u_pocket.pdb
REMARK  109 active torsions:
REMARK  status: ('A' for Active; 'I' for Inactive)
REMARK    1  A    between atoms: _1  and  _3
REMARK    2  A    between atoms: _3  and  _4
REMARK    3  A    between atoms: _3  and  _6
REMARK    4  A    between atoms: _6  and  _7
REMARK    5  A    between atoms: _7  and  _8
REMARK    6  A    between atoms: _8  and  _9
REMARK    7  A    between atoms: _18  and  _20
REMARK    8  A    between atoms: _20  and  _21
REMARK    9  A    between atoms: _20  and  _23
REMARK   10  A    between atoms: _23  and  _24
REMARK   11  A    between atoms: _34  and  _36
REMARK   12  A    between atoms: _36  and  _37
REMARK   13  A    between atoms: _36  and  _39
REMARK   14  A    between atoms: _39  and  _40
REMARK   15  A    between atoms: _45  and  _47
REMARK   16  A    between atoms: _47  and  _48
REMARK   17  A    between atoms: _47  and  _50
REMARK   18  A    between atoms: _50  and  _51
REMARK   19  A    between atoms: _56  and  _57
REMARK   20  A    between atoms: _59  and  _61
REMARK   21  A    between atoms: _61  and  _62
REMARK   22  A    between atoms: _61  and  _64
REMARK   23  A    between atoms: _64  and  _65
REMARK   24  A    between atoms: _65  and  _66
REMARK   25  A    between atoms: _69  and  _71
REMARK   26  A    between atoms: _71  and  _72
REMARK   27  A    between atoms: _71  and  _74
REMARK   28  A    between atoms: _74  and  _75
REMARK   29  A    between atoms: _85  and  _87
REMARK   30  A    between atoms: _87  and  _88
REMARK   31  A    between atoms: _87  and  _90
REMARK   32  A    between atoms: _90  and  _91
REMARK   33  A    between atoms: _96  and  _98
REMARK   34  A    between atoms: _98  and  _99
REMARK   35  A    between atoms: _98  and  _101
REMARK   36  A    between atoms: _101  and  _102
REMARK   37  A    between atoms: _112  and  _114
REMARK   38  A    between atoms: _114  and  _115
REMARK   39  A    between atoms: _114  and  _117
REMARK   40  A    between atoms: _120  and  _122
REMARK   41  A    between atoms: _122  and  _123
REMARK   42  A    between atoms: _122  and  _125
REMARK   43  A    between atoms: _125  and  _126
REMARK   44  A    between atoms: _126  and  _127
REMARK   45  A    between atoms: _127  and  _128
REMARK   46  A    between atoms: _128  and  _129
REMARK   47  A    between atoms: _133  and  _135
REMARK   48  A    between atoms: _135  and  _136
REMARK   49  A    between atoms: _135  and  _138
REMARK   50  A    between atoms: _138  and  _139
REMARK   51  A    between atoms: _139  and  _140
REMARK   52  A    between atoms: _142  and  _144
REMARK   53  A    between atoms: _144  and  _145
REMARK   54  A    between atoms: _144  and  _147
REMARK   55  A    between atoms: _147  and  _148
REMARK   56  A    between atoms: _151  and  _153
REMARK   57  A    between atoms: _153  and  _154
REMARK   58  A    between atoms: _153  and  _156
REMARK   59  A    between atoms: _156  and  _157
REMARK   60  A    between atoms: _160  and  _162
REMARK   61  A    between atoms: _162  and  _163
REMARK   62  A    between atoms: _162  and  _165
REMARK   63  A    between atoms: _165  and  _166
REMARK   64  A    between atoms: _169  and  _171
REMARK   65  A    between atoms: _171  and  _172
REMARK   66  A    between atoms: _171  and  _174
REMARK   67  A    between atoms: _174  and  _175
REMARK   68  A    between atoms: _178  and  _180
REMARK   69  A    between atoms: _180  and  _181
REMARK   70  A    between atoms: _180  and  _183
REMARK   71  A    between atoms: _183  and  _184
REMARK   72  A    between atoms: _184  and  _185
REMARK   73  A    between atoms: _185  and  _186
REMARK   74  A    between atoms: _195  and  _197
REMARK   75  A    between atoms: _197  and  _198
REMARK   76  A    between atoms: _197  and  _200
REMARK   77  A    between atoms: _200  and  _201
REMARK   78  A    between atoms: _204  and  _206
REMARK   79  A    between atoms: _206  and  _207
REMARK   80  A    between atoms: _206  and  _209
REMARK   81  A    between atoms: _209  and  _210
REMARK   82  A    between atoms: _213  and  _215
REMARK   83  A    between atoms: _215  and  _216
REMARK   84  A    between atoms: _215  and  _218
REMARK   85  A    between atoms: _218  and  _219
REMARK   86  A    between atoms: _222  and  _224
REMARK   87  A    between atoms: _224  and  _225
REMARK   88  A    between atoms: _224  and  _227
REMARK   89  A    between atoms: _227  and  _228
REMARK   90  A    between atoms: _228  and  _229
REMARK   91  A    between atoms: _229  and  _230
REMARK   92  A    between atoms: _239  and  _241
REMARK   93  A    between atoms: _241  and  _242
REMARK   94  A    between atoms: _241  and  _244
REMARK   95  A    between atoms: _244  and  _245
REMARK   96  A    between atoms: _248  and  _250
REMARK   97  A    between atoms: _250  and  _251
REMARK   98  A    between atoms: _250  and  _253
REMARK   99  A    between atoms: _253  and  _254
REMARK  100  A    between atoms: _254  and  _255
REMARK  101  A    between atoms: _255  and  _256
REMARK  102  A    between atoms: _265  and  _267
REMARK  103  A    between atoms: _267  and  _268
REMARK  104  A    between atoms: _267  and  _270
REMARK  105  A    between atoms: _270  and  _271
REMARK  106  A    between atoms: _274  and  _276
REMARK  107  A    between atoms: _276  and  _277
REMARK  108  A    between atoms: _276  and  _279
REMARK  109  A    between atoms: _279  and  _280
REMARK                            x       y       z     vdW  Elec       q    Type
REMARK                         _______ _______ _______ _____ _____    ______ ____
ROOT
ATOM      1  O   HOH     1      19.826  -1.991 152.395  0.00  0.00    +0.000 OA
ENDROOT
TORSDOF 0
REMARK  Name = ../refined-set-2016/4n7u/4n7u_pocket.pdb
REMARK  109 active torsions:
REMARK  status: ('A' for Active; 'I' for Inactive)
REMARK    1  A    between atoms: _1  and  _3
REMARK    2  A    between atoms: _3  and  _4
REMARK    3  A    between atoms: _3  and  _6
REMARK    4  A    between atoms: _6  and  _7
REMARK    5  A    between atoms: _7  and  _8
REMARK    6  A    between atoms: _8  and  _9
REMARK    7  A    between atoms: _18  and  _20
REMARK    8  A    between atoms: _20  and  _21
REMARK    9  A    between atoms: _20  and  _23
REMARK   10  A    between atoms: _23  and  _24
REMARK   11  A    between atoms: _34  and  _36
REMARK   12  A    between atoms: _36  and  _37
REMARK   13  A    between atoms: _36  and  _39
REMARK   14  A    between atoms: _39  and  _40
REMARK   15  A    between atoms: _45  and  _47
REMARK   16  A    between atoms: _47  and  _48
REMARK   17  A    between atoms: _47  and  _50
REMARK   18  A    between atoms: _50  and  _51
REMARK   19  A    between atoms: _56  and  _57
REMARK   20  A    between atoms: _59  and  _61
REMARK   21  A    between atoms: _61  and  _62
REMARK   22  A    between atoms: _61  and  _64
REMARK   23  A    between atoms: _64  and  _65
REMARK   24  A    between atoms: _65  and  _66
REMARK   25  A    between atoms: _69  and  _71
REMARK   26  A    between atoms: _71  and  _72
REMARK   27  A    between atoms: _71  and  _74
REMARK   28  A    between atoms: _74  and  _75
REMARK   29  A    between atoms: _85  and  _87
REMARK   30  A    between atoms: _87  and  _88
REMARK   31  A    between atoms: _87  and  _90
REMARK   32  A    between atoms: _90  and  _91
REMARK   33  A    between atoms: _96  and  _98
REMARK   34  A    between atoms: _98  and  _99
REMARK   35  A    between atoms: _98  and  _101
REMARK   36  A    between atoms: _101  and  _102
REMARK   37  A    between atoms: _112  and  _114
REMARK   38  A    between atoms: _114  and  _115
REMARK   39  A    between atoms: _114  and  _117
REMARK   40  A    between atoms: _120  and  _122
REMARK   41  A    between atoms: _122  and  _123
REMARK   42  A    between atoms: _122  and  _125
REMARK   43  A    between atoms: _125  and  _126
REMARK   44  A    between atoms: _126  and  _127
REMARK   45  A    between atoms: _127  and  _128
REMARK   46  A    between atoms: _128  and  _129
REMARK   47  A    between atoms: _133  and  _135
REMARK   48  A    between atoms: _135  and  _136
REMARK   49  A    between atoms: _135  and  _138
REMARK   50  A    between atoms: _138  and  _139
REMARK   51  A    between atoms: _139  and  _140
REMARK   52  A    between atoms: _142  and  _144
REMARK   53  A    between atoms: _144  and  _145
REMARK   54  A    between atoms: _144  and  _147
REMARK   55  A    between atoms: _147  and  _148
REMARK   56  A    between atoms: _151  and  _153
REMARK   57  A    between atoms: _153  and  _154
REMARK   58  A    between atoms: _153  and  _156
REMARK   59  A    between atoms: _156  and  _157
REMARK   60  A    between atoms: _160  and  _162
REMARK   61  A    between atoms: _162  and  _163
REMARK   62  A    between atoms: _162  and  _165
REMARK   63  A    between atoms: _165  and  _166
REMARK   64  A    between atoms: _169  and  _171
REMARK   65  A    between atoms: _171  and  _172
REMARK   66  A    between atoms: _171  and  _174
REMARK   67  A    between atoms: _174  and  _175
REMARK   68  A    between atoms: _178  and  _180
REMARK   69  A    between atoms: _180  and  _181
REMARK   70  A    between atoms: _180  and  _183
REMARK   71  A    between atoms: _183  and  _184
REMARK   72  A    between atoms: _184  and  _185
REMARK   73  A    between atoms: _185  and  _186
REMARK   74  A    between atoms: _195  and  _197
REMARK   75  A    between atoms: _197  and  _198
REMARK   76  A    between atoms: _197  and  _200
REMARK   77  A    between atoms: _200  and  _201
REMARK   78  A    between atoms: _204  and  _206
REMARK   79  A    between atoms: _206  and  _207
REMARK   80  A    between atoms: _206  and  _209
REMARK   81  A    between atoms: _209  and  _210
REMARK   82  A    between atoms: _213  and  _215
REMARK   83  A    between atoms: _215  and  _216
REMARK   84  A    between atoms: _215  and  _218
REMARK   85  A    between atoms: _218  and  _219
REMARK   86  A    between atoms: _222  and  _224
REMARK   87  A    between atoms: _224  and  _225
REMARK   88  A    between atoms: _224  and  _227
REMARK   89  A    between atoms: _227  and  _228
REMARK   90  A    between atoms: _228  and  _229
REMARK   91  A    between atoms: _229  and  _230
REMARK   92  A    between atoms: _239  and  _241
REMARK   93  A    between atoms: _241  and  _242
REMARK   94  A    between atoms: _241  and  _244
REMARK   95  A    between atoms: _244  and  _245
REMARK   96  A    between atoms: _248  and  _250
REMARK   97  A    between atoms: _250  and  _251
REMARK   98  A    between atoms: _250  and  _253
REMARK   99  A    between atoms: _253  and  _254
REMARK  100  A    between atoms: _254  and  _255
REMARK  101  A    between atoms: _255  and  _256
REMARK  102  A    between atoms: _265  and  _267
REMARK  103  A    between atoms: _267  and  _268
REMARK  104  A    between atoms: _267  and  _270
REMARK  105  A    between atoms: _270  and  _271
REMARK  106  A    between atoms: _274  and  _276
REMARK  107  A    between atoms: _276  and  _277
REMARK  108  A    between atoms: _276  and  _279
REMARK  109  A    between atoms: _279  and  _280
REMARK                            x       y       z     vdW  Elec       q    Type
REMARK                         _______ _______ _______ _____ _____    ______ ____
ROOT
ATOM      1  O   HOH     1      24.258   2.352 146.384  0.00  0.00    +0.000 OA
ENDROOT
TORSDOF 0
REMARK  Name = ../refined-set-2016/4n7u/4n7u_pocket.pdb
REMARK  109 active torsions:
REMARK  status: ('A' for Active; 'I' for Inactive)
REMARK    1  A    between atoms: _1  and  _3
REMARK    2  A    between atoms: _3  and  _4
REMARK    3  A    between atoms: _3  and  _6
REMARK    4  A    between atoms: _6  and  _7
REMARK    5  A    between atoms: _7  and  _8
REMARK    6  A    between atoms: _8  and  _9
REMARK    7  A    between atoms: _18  and  _20
REMARK    8  A    between atoms: _20  and  _21
REMARK    9  A    between atoms: _20  and  _23
REMARK   10  A    between atoms: _23  and  _24
REMARK   11  A    between atoms: _34  and  _36
REMARK   12  A    between atoms: _36  and  _37
REMARK   13  A    between atoms: _36  and  _39
REMARK   14  A    between atoms: _39  and  _40
REMARK   15  A    between atoms: _45  and  _47
REMARK   16  A    between atoms: _47  and  _48
REMARK   17  A    between atoms: _47  and  _50
REMARK   18  A    between atoms: _50  and  _51
REMARK   19  A    between atoms: _56  and  _57
REMARK   20  A    between atoms: _59  and  _61
REMARK   21  A    between atoms: _61  and  _62
REMARK   22  A    between atoms: _61  and  _64
REMARK   23  A    between atoms: _64  and  _65
REMARK   24  A    between atoms: _65  and  _66
REMARK   25  A    between atoms: _69  and  _71
REMARK   26  A    between atoms: _71  and  _72
REMARK   27  A    between atoms: _71  and  _74
REMARK   28  A    between atoms: _74  and  _75
REMARK   29  A    between atoms: _85  and  _87
REMARK   30  A    between atoms: _87  and  _88
REMARK   31  A    between atoms: _87  and  _90
REMARK   32  A    between atoms: _90  and  _91
REMARK   33  A    between atoms: _96  and  _98
REMARK   34  A    between atoms: _98  and  _99
REMARK   35  A    between atoms: _98  and  _101
REMARK   36  A    between atoms: _101  and  _102
REMARK   37  A    between atoms: _112  and  _114
REMARK   38  A    between atoms: _114  and  _115
REMARK   39  A    between atoms: _114  and  _117
REMARK   40  A    between atoms: _120  and  _122
REMARK   41  A    between atoms: _122  and  _123
REMARK   42  A    between atoms: _122  and  _125
REMARK   43  A    between atoms: _125  and  _126
REMARK   44  A    between atoms: _126  and  _127
REMARK   45  A    between atoms: _127  and  _128
REMARK   46  A    between atoms: _128  and  _129
REMARK   47  A    between atoms: _133  and  _135
REMARK   48  A    between atoms: _135  and  _136
REMARK   49  A    between atoms: _135  and  _138
REMARK   50  A    between atoms: _138  and  _139
REMARK   51  A    between atoms: _139  and  _140
REMARK   52  A    between atoms: _142  and  _144
REMARK   53  A    between atoms: _144  and  _145
REMARK   54  A    between atoms: _144  and  _147
REMARK   55  A    between atoms: _147  and  _148
REMARK   56  A    between atoms: _151  and  _153
REMARK   57  A    between atoms: _153  and  _154
REMARK   58  A    between atoms: _153  and  _156
REMARK   59  A    between atoms: _156  and  _157
REMARK   60  A    between atoms: _160  and  _162
REMARK   61  A    between atoms: _162  and  _163
REMARK   62  A    between atoms: _162  and  _165
REMARK   63  A    between atoms: _165  and  _166
REMARK   64  A    between atoms: _169  and  _171
REMARK   65  A    between atoms: _171  and  _172
REMARK   66  A    between atoms: _171  and  _174
REMARK   67  A    between atoms: _174  and  _175
REMARK   68  A    between atoms: _178  and  _180
REMARK   69  A    between atoms: _180  and  _181
REMARK   70  A    between atoms: _180  and  _183
REMARK   71  A    between atoms: _183  and  _184
REMARK   72  A    between atoms: _184  and  _185
REMARK   73  A    between atoms: _185  and  _186
REMARK   74  A    between atoms: _195  and  _197
REMARK   75  A    between atoms: _197  and  _198
REMARK   76  A    between atoms: _197  and  _200
REMARK   77  A    between atoms: _200  and  _201
REMARK   78  A    between atoms: _204  and  _206
REMARK   79  A    between atoms: _206  and  _207
REMARK   80  A    between atoms: _206  and  _209
REMARK   81  A    between atoms: _209  and  _210
REMARK   82  A    between atoms: _213  and  _215
REMARK   83  A    between atoms: _215  and  _216
REMARK   84  A    between atoms: _215  and  _218
REMARK   85  A    between atoms: _218  and  _219
REMARK   86  A    between atoms: _222  and  _224
REMARK   87  A    between atoms: _224  and  _225
REMARK   88  A    between atoms: _224  and  _227
REMARK   89  A    between atoms: _227  and  _228
REMARK   90  A    between atoms: _228  and  _229
REMARK   91  A    between atoms: _229  and  _230
REMARK   92  A    between atoms: _239  and  _241
REMARK   93  A    between atoms: _241  and  _242
REMARK   94  A    between atoms: _241  and  _244
REMARK   95  A    between atoms: _244  and  _245
REMARK   96  A    between atoms: _248  and  _250
REMARK   97  A    between atoms: _250  and  _251
REMARK   98  A    between atoms: _250  and  _253
REMARK   99  A    between atoms: _253  and  _254
REMARK  100  A    between atoms: _254  and  _255
REMARK  101  A    between atoms: _255  and  _256
REMARK  102  A    between atoms: _265  and  _267
REMARK  103  A    between atoms: _267  and  _268
REMARK  104  A    between atoms: _267  and  _270
REMARK  105  A    between atoms: _270  and  _271
REMARK  106  A    between atoms: _274  and  _276
REMARK  107  A    between atoms: _276  and  _277
REMARK  108  A    between atoms: _276  and  _279
REMARK  109  A    between atoms: _279  and  _280
REMARK                            x       y       z     vdW  Elec       q    Type
REMARK                         _______ _______ _______ _____ _____    ______ ____
ROOT
ATOM      1  O   HOH     1      25.905   0.902 145.214  0.00  0.00    +0.000 OA
ENDROOT
TORSDOF 0
REMARK  Name = ../refined-set-2016/4n7u/4n7u_pocket.pdb
REMARK  109 active torsions:
REMARK  status: ('A' for Active; 'I' for Inactive)
REMARK    1  A    between atoms: _1  and  _3
REMARK    2  A    between atoms: _3  and  _4
REMARK    3  A    between atoms: _3  and  _6
REMARK    4  A    between atoms: _6  and  _7
REMARK    5  A    between atoms: _7  and  _8
REMARK    6  A    between atoms: _8  and  _9
REMARK    7  A    between atoms: _18  and  _20
REMARK    8  A    between atoms: _20  and  _21
REMARK    9  A    between atoms: _20  and  _23
REMARK   10  A    between atoms: _23  and  _24
REMARK   11  A    between atoms: _34  and  _36
REMARK   12  A    between atoms: _36  and  _37
REMARK   13  A    between atoms: _36  and  _39
REMARK   14  A    between atoms: _39  and  _40
REMARK   15  A    between atoms: _45  and  _47
REMARK   16  A    between atoms: _47  and  _48
REMARK   17  A    between atoms: _47  and  _50
REMARK   18  A    between atoms: _50  and  _51
REMARK   19  A    between atoms: _56  and  _57
REMARK   20  A    between atoms: _59  and  _61
REMARK   21  A    between atoms: _61  and  _62
REMARK   22  A    between atoms: _61  and  _64
REMARK   23  A    between atoms: _64  and  _65
REMARK   24  A    between atoms: _65  and  _66
REMARK   25  A    between atoms: _69  and  _71
REMARK   26  A    between atoms: _71  and  _72
REMARK   27  A    between atoms: _71  and  _74
REMARK   28  A    between atoms: _74  and  _75
REMARK   29  A    between atoms: _85  and  _87
REMARK   30  A    between atoms: _87  and  _88
REMARK   31  A    between atoms: _87  and  _90
REMARK   32  A    between atoms: _90  and  _91
REMARK   33  A    between atoms: _96  and  _98
REMARK   34  A    between atoms: _98  and  _99
REMARK   35  A    between atoms: _98  and  _101
REMARK   36  A    between atoms: _101  and  _102
REMARK   37  A    between atoms: _112  and  _114
REMARK   38  A    between atoms: _114  and  _115
REMARK   39  A    between atoms: _114  and  _117
REMARK   40  A    between atoms: _120  and  _122
REMARK   41  A    between atoms: _122  and  _123
REMARK   42  A    between atoms: _122  and  _125
REMARK   43  A    between atoms: _125  and  _126
REMARK   44  A    between atoms: _126  and  _127
REMARK   45  A    between atoms: _127  and  _128
REMARK   46  A    between atoms: _128  and  _129
REMARK   47  A    between atoms: _133  and  _135
REMARK   48  A    between atoms: _135  and  _136
REMARK   49  A    between atoms: _135  and  _138
REMARK   50  A    between atoms: _138  and  _139
REMARK   51  A    between atoms: _139  and  _140
REMARK   52  A    between atoms: _142  and  _144
REMARK   53  A    between atoms: _144  and  _145
REMARK   54  A    between atoms: _144  and  _147
REMARK   55  A    between atoms: _147  and  _148
REMARK   56  A    between atoms: _151  and  _153
REMARK   57  A    between atoms: _153  and  _154
REMARK   58  A    between atoms: _153  and  _156
REMARK   59  A    between atoms: _156  and  _157
REMARK   60  A    between atoms: _160  and  _162
REMARK   61  A    between atoms: _162  and  _163
REMARK   62  A    between atoms: _162  and  _165
REMARK   63  A    between atoms: _165  and  _166
REMARK   64  A    between atoms: _169  and  _171
REMARK   65  A    between atoms: _171  and  _172
REMARK   66  A    between atoms: _171  and  _174
REMARK   67  A    between atoms: _174  and  _175
REMARK   68  A    between atoms: _178  and  _180
REMARK   69  A    between atoms: _180  and  _181
REMARK   70  A    between atoms: _180  and  _183
REMARK   71  A    between atoms: _183  and  _184
REMARK   72  A    between atoms: _184  and  _185
REMARK   73  A    between atoms: _185  and  _186
REMARK   74  A    between atoms: _195  and  _197
REMARK   75  A    between atoms: _197  and  _198
REMARK   76  A    between atoms: _197  and  _200
REMARK   77  A    between atoms: _200  and  _201
REMARK   78  A    between atoms: _204  and  _206
REMARK   79  A    between atoms: _206  and  _207
REMARK   80  A    between atoms: _206  and  _209
REMARK   81  A    between atoms: _209  and  _210
REMARK   82  A    between atoms: _213  and  _215
REMARK   83  A    between atoms: _215  and  _216
REMARK   84  A    between atoms: _215  and  _218
REMARK   85  A    between atoms: _218  and  _219
REMARK   86  A    between atoms: _222  and  _224
REMARK   87  A    between atoms: _224  and  _225
REMARK   88  A    between atoms: _224  and  _227
REMARK   89  A    between atoms: _227  and  _228
REMARK   90  A    between atoms: _228  and  _229
REMARK   91  A    between atoms: _229  and  _230
REMARK   92  A    between atoms: _239  and  _241
REMARK   93  A    between atoms: _241  and  _242
REMARK   94  A    between atoms: _241  and  _244
REMARK   95  A    between atoms: _244  and  _245
REMARK   96  A    between atoms: _248  and  _250
REMARK   97  A    between atoms: _250  and  _251
REMARK   98  A    between atoms: _250  and  _253
REMARK   99  A    between atoms: _253  and  _254
REMARK  100  A    between atoms: _254  and  _255
REMARK  101  A    between atoms: _255  and  _256
REMARK  102  A    between atoms: _265  and  _267
REMARK  103  A    between atoms: _267  and  _268
REMARK  104  A    between atoms: _267  and  _270
REMARK  105  A    between atoms: _270  and  _271
REMARK  106  A    between atoms: _274  and  _276
REMARK  107  A    between atoms: _276  and  _277
REMARK  108  A    between atoms: _276  and  _279
REMARK  109  A    between atoms: _279  and  _280
REMARK                            x       y       z     vdW  Elec       q    Type
REMARK                         _______ _______ _______ _____ _____    ______ ____
ROOT
ATOM      1  O   HOH     1      27.581   5.234 148.568  0.00  0.00    +0.000 OA
ENDROOT
TORSDOF 0
REMARK  Name = ../refined-set-2016/4n7u/4n7u_pocket.pdb
REMARK  109 active torsions:
REMARK  status: ('A' for Active; 'I' for Inactive)
REMARK    1  A    between atoms: _1  and  _3
REMARK    2  A    between atoms: _3  and  _4
REMARK    3  A    between atoms: _3  and  _6
REMARK    4  A    between atoms: _6  and  _7
REMARK    5  A    between atoms: _7  and  _8
REMARK    6  A    between atoms: _8  and  _9
REMARK    7  A    between atoms: _18  and  _20
REMARK    8  A    between atoms: _20  and  _21
REMARK    9  A    between atoms: _20  and  _23
REMARK   10  A    between atoms: _23  and  _24
REMARK   11  A    between atoms: _34  and  _36
REMARK   12  A    between atoms: _36  and  _37
REMARK   13  A    between atoms: _36  and  _39
REMARK   14  A    between atoms: _39  and  _40
REMARK   15  A    between atoms: _45  and  _47
REMARK   16  A    between atoms: _47  and  _48
REMARK   17  A    between atoms: _47  and  _50
REMARK   18  A    between atoms: _50  and  _51
REMARK   19  A    between atoms: _56  and  _57
REMARK   20  A    between atoms: _59  and  _61
REMARK   21  A    between atoms: _61  and  _62
REMARK   22  A    between atoms: _61  and  _64
REMARK   23  A    between atoms: _64  and  _65
REMARK   24  A    between atoms: _65  and  _66
REMARK   25  A    between atoms: _69  and  _71
REMARK   26  A    between atoms: _71  and  _72
REMARK   27  A    between atoms: _71  and  _74
REMARK   28  A    between atoms: _74  and  _75
REMARK   29  A    between atoms: _85  and  _87
REMARK   30  A    between atoms: _87  and  _88
REMARK   31  A    between atoms: _87  and  _90
REMARK   32  A    between atoms: _90  and  _91
REMARK   33  A    between atoms: _96  and  _98
REMARK   34  A    between atoms: _98  and  _99
REMARK   35  A    between atoms: _98  and  _101
REMARK   36  A    between atoms: _101  and  _102
REMARK   37  A    between atoms: _112  and  _114
REMARK   38  A    between atoms: _114  and  _115
REMARK   39  A    between atoms: _114  and  _117
REMARK   40  A    between atoms: _120  and  _122
REMARK   41  A    between atoms: _122  and  _123
REMARK   42  A    between atoms: _122  and  _125
REMARK   43  A    between atoms: _125  and  _126
REMARK   44  A    between atoms: _126  and  _127
REMARK   45  A    between atoms: _127  and  _128
REMARK   46  A    between atoms: _128  and  _129
REMARK   47  A    between atoms: _133  and  _135
REMARK   48  A    between atoms: _135  and  _136
REMARK   49  A    between atoms: _135  and  _138
REMARK   50  A    between atoms: _138  and  _139
REMARK   51  A    between atoms: _139  and  _140
REMARK   52  A    between atoms: _142  and  _144
REMARK   53  A    between atoms: _144  and  _145
REMARK   54  A    between atoms: _144  and  _147
REMARK   55  A    between atoms: _147  and  _148
REMARK   56  A    between atoms: _151  and  _153
REMARK   57  A    between atoms: _153  and  _154
REMARK   58  A    between atoms: _153  and  _156
REMARK   59  A    between atoms: _156  and  _157
REMARK   60  A    between atoms: _160  and  _162
REMARK   61  A    between atoms: _162  and  _163
REMARK   62  A    between atoms: _162  and  _165
REMARK   63  A    between atoms: _165  and  _166
REMARK   64  A    between atoms: _169  and  _171
REMARK   65  A    between atoms: _171  and  _172
REMARK   66  A    between atoms: _171  and  _174
REMARK   67  A    between atoms: _174  and  _175
REMARK   68  A    between atoms: _178  and  _180
REMARK   69  A    between atoms: _180  and  _181
REMARK   70  A    between atoms: _180  and  _183
REMARK   71  A    between atoms: _183  and  _184
REMARK   72  A    between atoms: _184  and  _185
REMARK   73  A    between atoms: _185  and  _186
REMARK   74  A    between atoms: _195  and  _197
REMARK   75  A    between atoms: _197  and  _198
REMARK   76  A    between atoms: _197  and  _200
REMARK   77  A    between atoms: _200  and  _201
REMARK   78  A    between atoms: _204  and  _206
REMARK   79  A    between atoms: _206  and  _207
REMARK   80  A    between atoms: _206  and  _209
REMARK   81  A    between atoms: _209  and  _210
REMARK   82  A    between atoms: _213  and  _215
REMARK   83  A    between atoms: _215  and  _216
REMARK   84  A    between atoms: _215  and  _218
REMARK   85  A    between atoms: _218  and  _219
REMARK   86  A    between atoms: _222  and  _224
REMARK   87  A    between atoms: _224  and  _225
REMARK   88  A    between atoms: _224  and  _227
REMARK   89  A    between atoms: _227  and  _228
REMARK   90  A    between atoms: _228  and  _229
REMARK   91  A    between atoms: _229  and  _230
REMARK   92  A    between atoms: _239  and  _241
REMARK   93  A    between atoms: _241  and  _242
REMARK   94  A    between atoms: _241  and  _244
REMARK   95  A    between atoms: _244  and  _245
REMARK   96  A    between atoms: _248  and  _250
REMARK   97  A    between atoms: _250  and  _251
REMARK   98  A    between atoms: _250  and  _253
REMARK   99  A    between atoms: _253  and  _254
REMARK  100  A    between atoms: _254  and  _255
REMARK  101  A    between atoms: _255  and  _256
REMARK  102  A    between atoms: _265  and  _267
REMARK  103  A    between atoms: _267  and  _268
REMARK  104  A    between atoms: _267  and  _270
REMARK  105  A    between atoms: _270  and  _271
REMARK  106  A    between atoms: _274  and  _276
REMARK  107  A    between atoms: _276  and  _277
REMARK  108  A    between atoms: _276  and  _279
REMARK  109  A    between atoms: _279  and  _280
REMARK                            x       y       z     vdW  Elec       q    Type
REMARK                         _______ _______ _______ _____ _____    ______ ____
ROOT
ATOM      1  O   HOH     1      17.711  -0.331 146.775  0.00  0.00    +0.000 OA
ENDROOT
TORSDOF 0
REMARK  Name = ../refined-set-2016/4n7u/4n7u_pocket.pdb
REMARK  109 active torsions:
REMARK  status: ('A' for Active; 'I' for Inactive)
REMARK    1  A    between atoms: _1  and  _3
REMARK    2  A    between atoms: _3  and  _4
REMARK    3  A    between atoms: _3  and  _6
REMARK    4  A    between atoms: _6  and  _7
REMARK    5  A    between atoms: _7  and  _8
REMARK    6  A    between atoms: _8  and  _9
REMARK    7  A    between atoms: _18  and  _20
REMARK    8  A    between atoms: _20  and  _21
REMARK    9  A    between atoms: _20  and  _23
REMARK   10  A    between atoms: _23  and  _24
REMARK   11  A    between atoms: _34  and  _36
REMARK   12  A    between atoms: _36  and  _37
REMARK   13  A    between atoms: _36  and  _39
REMARK   14  A    between atoms: _39  and  _40
REMARK   15  A    between atoms: _45  and  _47
REMARK   16  A    between atoms: _47  and  _48
REMARK   17  A    between atoms: _47  and  _50
REMARK   18  A    between atoms: _50  and  _51
REMARK   19  A    between atoms: _56  and  _57
REMARK   20  A    between atoms: _59  and  _61
REMARK   21  A    between atoms: _61  and  _62
REMARK   22  A    between atoms: _61  and  _64
REMARK   23  A    between atoms: _64  and  _65
REMARK   24  A    between atoms: _65  and  _66
REMARK   25  A    between atoms: _69  and  _71
REMARK   26  A    between atoms: _71  and  _72
REMARK   27  A    between atoms: _71  and  _74
REMARK   28  A    between atoms: _74  and  _75
REMARK   29  A    between atoms: _85  and  _87
REMARK   30  A    between atoms: _87  and  _88
REMARK   31  A    between atoms: _87  and  _90
REMARK   32  A    between atoms: _90  and  _91
REMARK   33  A    between atoms: _96  and  _98
REMARK   34  A    between atoms: _98  and  _99
REMARK   35  A    between atoms: _98  and  _101
REMARK   36  A    between atoms: _101  and  _102
REMARK   37  A    between atoms: _112  and  _114
REMARK   38  A    between atoms: _114  and  _115
REMARK   39  A    between atoms: _114  and  _117
REMARK   40  A    between atoms: _120  and  _122
REMARK   41  A    between atoms: _122  and  _123
REMARK   42  A    between atoms: _122  and  _125
REMARK   43  A    between atoms: _125  and  _126
REMARK   44  A    between atoms: _126  and  _127
REMARK   45  A    between atoms: _127  and  _128
REMARK   46  A    between atoms: _128  and  _129
REMARK   47  A    between atoms: _133  and  _135
REMARK   48  A    between atoms: _135  and  _136
REMARK   49  A    between atoms: _135  and  _138
REMARK   50  A    between atoms: _138  and  _139
REMARK   51  A    between atoms: _139  and  _140
REMARK   52  A    between atoms: _142  and  _144
REMARK   53  A    between atoms: _144  and  _145
REMARK   54  A    between atoms: _144  and  _147
REMARK   55  A    between atoms: _147  and  _148
REMARK   56  A    between atoms: _151  and  _153
REMARK   57  A    between atoms: _153  and  _154
REMARK   58  A    between atoms: _153  and  _156
REMARK   59  A    between atoms: _156  and  _157
REMARK   60  A    between atoms: _160  and  _162
REMARK   61  A    between atoms: _162  and  _163
REMARK   62  A    between atoms: _162  and  _165
REMARK   63  A    between atoms: _165  and  _166
REMARK   64  A    between atoms: _169  and  _171
REMARK   65  A    between atoms: _171  and  _172
REMARK   66  A    between atoms: _171  and  _174
REMARK   67  A    between atoms: _174  and  _175
REMARK   68  A    between atoms: _178  and  _180
REMARK   69  A    between atoms: _180  and  _181
REMARK   70  A    between atoms: _180  and  _183
REMARK   71  A    between atoms: _183  and  _184
REMARK   72  A    between atoms: _184  and  _185
REMARK   73  A    between atoms: _185  and  _186
REMARK   74  A    between atoms: _195  and  _197
REMARK   75  A    between atoms: _197  and  _198
REMARK   76  A    between atoms: _197  and  _200
REMARK   77  A    between atoms: _200  and  _201
REMARK   78  A    between atoms: _204  and  _206
REMARK   79  A    between atoms: _206  and  _207
REMARK   80  A    between atoms: _206  and  _209
REMARK   81  A    between atoms: _209  and  _210
REMARK   82  A    between atoms: _213  and  _215
REMARK   83  A    between atoms: _215  and  _216
REMARK   84  A    between atoms: _215  and  _218
REMARK   85  A    between atoms: _218  and  _219
REMARK   86  A    between atoms: _222  and  _224
REMARK   87  A    between atoms: _224  and  _225
REMARK   88  A    between atoms: _224  and  _227
REMARK   89  A    between atoms: _227  and  _228
REMARK   90  A    between atoms: _228  and  _229
REMARK   91  A    between atoms: _229  and  _230
REMARK   92  A    between atoms: _239  and  _241
REMARK   93  A    between atoms: _241  and  _242
REMARK   94  A    between atoms: _241  and  _244
REMARK   95  A    between atoms: _244  and  _245
REMARK   96  A    between atoms: _248  and  _250
REMARK   97  A    between atoms: _250  and  _251
REMARK   98  A    between atoms: _250  and  _253
REMARK   99  A    between atoms: _253  and  _254
REMARK  100  A    between atoms: _254  and  _255
REMARK  101  A    between atoms: _255  and  _256
REMARK  102  A    between atoms: _265  and  _267
REMARK  103  A    between atoms: _267  and  _268
REMARK  104  A    between atoms: _267  and  _270
REMARK  105  A    between atoms: _270  and  _271
REMARK  106  A    between atoms: _274  and  _276
REMARK  107  A    between atoms: _276  and  _277
REMARK  108  A    between atoms: _276  and  _279
REMARK  109  A    between atoms: _279  and  _280
REMARK                            x       y       z     vdW  Elec       q    Type
REMARK                         _______ _______ _______ _____ _____    ______ ____
ROOT
ATOM      1  O   HOH     1      24.649   4.884 146.275  0.00  0.00    +0.000 OA
ENDROOT
TORSDOF 0
