REMARK  Name = ../refined-set-2016/1n4k/1n4k_pocket.pdb
REMARK  130 active torsions:
REMARK  status: ('A' for Active; 'I' for Inactive)
REMARK    1  A    between atoms: _1  and  _3
REMARK    2  A    between atoms: _3  and  _4
REMARK    3  A    between atoms: _3  and  _6
REMARK    4  A    between atoms: _6  and  _7
REMARK    5  A    between atoms: _7  and  _8
REMARK    6  A    between atoms: _8  and  _9
REMARK    7  A    between atoms: _18  and  _20
REMARK    8  A    between atoms: _20  and  _21
REMARK    9  A    between atoms: _20  and  _23
REMARK   10  A    between atoms: _23  and  _24
REMARK   11  A    between atoms: _27  and  _29
REMARK   12  A    between atoms: _29  and  _30
REMARK   13  A    between atoms: _29  and  _32
REMARK   14  A    between atoms: _32  and  _33
REMARK   15  A    between atoms: _36  and  _38
REMARK   16  A    between atoms: _38  and  _39
REMARK   17  A    between atoms: _41  and  _43
REMARK   18  A    between atoms: _43  and  _44
REMARK   19  A    between atoms: _43  and  _46
REMARK   20  A    between atoms: _46  and  _47
REMARK   21  A    between atoms: _47  and  _48
REMARK   22  A    between atoms: _48  and  _49
REMARK   23  A    between atoms: _58  and  _60
REMARK   24  A    between atoms: _60  and  _61
REMARK   25  A    between atoms: _60  and  _63
REMARK   26  A    between atoms: _63  and  _64
REMARK   27  A    between atoms: _64  and  _65
REMARK   28  A    between atoms: _70  and  _72
REMARK   29  A    between atoms: _72  and  _73
REMARK   30  A    between atoms: _72  and  _75
REMARK   31  A    between atoms: _75  and  _76
REMARK   32  A    between atoms: _78  and  _80
REMARK   33  A    between atoms: _80  and  _81
REMARK   34  A    between atoms: _84  and  _86
REMARK   35  A    between atoms: _86  and  _87
REMARK   36  A    between atoms: _86  and  _89
REMARK   37  A    between atoms: _89  and  _90
REMARK   38  A    between atoms: _92  and  _94
REMARK   39  A    between atoms: _94  and  _95
REMARK   40  A    between atoms: _98  and  _100
REMARK   41  A    between atoms: _100  and  _101
REMARK   42  A    between atoms: _100  and  _103
REMARK   43  A    between atoms: _103  and  _104
REMARK   44  A    between atoms: _107  and  _109
REMARK   45  A    between atoms: _109  and  _110
REMARK   46  A    between atoms: _109  and  _112
REMARK   47  A    between atoms: _112  and  _113
REMARK   48  A    between atoms: _115  and  _117
REMARK   49  A    between atoms: _117  and  _118
REMARK   50  A    between atoms: _117  and  _120
REMARK   51  A    between atoms: _120  and  _121
REMARK   52  A    between atoms: _123  and  _125
REMARK   53  A    between atoms: _125  and  _126
REMARK   54  A    between atoms: _125  and  _128
REMARK   55  A    between atoms: _128  and  _129
REMARK   56  A    between atoms: _129  and  _130
REMARK   57  A    between atoms: _130  and  _131
REMARK   58  A    between atoms: _131  and  _132
REMARK   59  A    between atoms: _136  and  _138
REMARK   60  A    between atoms: _138  and  _139
REMARK   61  A    between atoms: _138  and  _141
REMARK   62  A    between atoms: _144  and  _146
REMARK   63  A    between atoms: _146  and  _147
REMARK   64  A    between atoms: _146  and  _149
REMARK   65  A    between atoms: _149  and  _150
REMARK   66  A    between atoms: _150  and  _151
REMARK   67  A    between atoms: _151  and  _152
REMARK   68  A    between atoms: _161  and  _163
REMARK   69  A    between atoms: _163  and  _164
REMARK   70  A    between atoms: _163  and  _166
REMARK   71  A    between atoms: _166  and  _167
REMARK   72  A    between atoms: _167  and  _168
REMARK   73  A    between atoms: _171  and  _173
REMARK   74  A    between atoms: _173  and  _174
REMARK   75  A    between atoms: _173  and  _176
REMARK   76  A    between atoms: _176  and  _177
REMARK   77  A    between atoms: _177  and  _178
REMARK   78  A    between atoms: _183  and  _185
REMARK   79  A    between atoms: _185  and  _186
REMARK   80  A    between atoms: _185  and  _188
REMARK   81  A    between atoms: _188  and  _189
REMARK   82  A    between atoms: _189  and  _190
REMARK   83  A    between atoms: _190  and  _191
REMARK   84  A    between atoms: _191  and  _192
REMARK   85  A    between atoms: _196  and  _198
REMARK   86  A    between atoms: _198  and  _199
REMARK   87  A    between atoms: _198  and  _201
REMARK   88  A    between atoms: _201  and  _202
REMARK   89  A    between atoms: _205  and  _207
REMARK   90  A    between atoms: _207  and  _208
REMARK   91  A    between atoms: _207  and  _210
REMARK   92  A    between atoms: _210  and  _211
REMARK   93  A    between atoms: _211  and  _212
REMARK   94  A    between atoms: _212  and  _213
REMARK   95  A    between atoms: _222  and  _224
REMARK   96  A    between atoms: _224  and  _225
REMARK   97  A    between atoms: _224  and  _227
REMARK   98  A    between atoms: _227  and  _228
REMARK   99  A    between atoms: _228  and  _229
REMARK  100  A    between atoms: _232  and  _234
REMARK  101  A    between atoms: _234  and  _235
REMARK  102  A    between atoms: _234  and  _237
REMARK  103  A    between atoms: _237  and  _238
REMARK  104  A    between atoms: _241  and  _243
REMARK  105  A    between atoms: _243  and  _244
REMARK  106  A    between atoms: _243  and  _246
REMARK  107  A    between atoms: _246  and  _247
REMARK  108  A    between atoms: _252  and  _253
REMARK  109  A    between atoms: _255  and  _257
REMARK  110  A    between atoms: _257  and  _258
REMARK  111  A    between atoms: _257  and  _260
REMARK  112  A    between atoms: _260  and  _261
REMARK  113  A    between atoms: _261  and  _262
REMARK  114  A    between atoms: _262  and  _263
REMARK  115  A    between atoms: _272  and  _274
REMARK  116  A    between atoms: _274  and  _275
REMARK  117  A    between atoms: _274  and  _277
REMARK  118  A    between atoms: _277  and  _278
REMARK  119  A    between atoms: _278  and  _279
REMARK  120  A    between atoms: _279  and  _280
REMARK  121  A    between atoms: _280  and  _281
REMARK  122  A    between atoms: _285  and  _287
REMARK  123  A    between atoms: _287  and  _288
REMARK  124  A    between atoms: _287  and  _290
REMARK  125  A    between atoms: _290  and  _291
REMARK  126  A    between atoms: _296  and  _298
REMARK  127  A    between atoms: _298  and  _299
REMARK  128  A    between atoms: _298  and  _301
REMARK  129  A    between atoms: _301  and  _302
REMARK  130  A    between atoms: _302  and  _303
REMARK                            x       y       z     vdW  Elec       q    Type
REMARK                         _______ _______ _______ _____ _____    ______ ____
ROOT
ATOM      1  C   GLY A   4      23.848  -8.081  13.800  0.00  0.00    +0.243 C 
ATOM      2  N   ARG A   5      24.714  -7.266  14.393  0.00  0.00    -0.297 N 
ATOM      3  H   ARG A   5      24.400  -6.706  15.211  0.00  0.00    +0.150 HD
ATOM      4  O   GLY A   4      24.140  -8.770  12.823  0.00  0.00    -0.273 OA
ENDROOT
BRANCH   2   5
ATOM      5  CA  ARG A   5      26.091  -7.133  13.932  0.00  0.00    +0.149 C 
BRANCH   5   6
ATOM      6  C   ARG A   5      26.856  -8.439  14.116  0.00  0.00    +0.241 C 
ATOM      7  O   ARG A   5      26.445  -9.303  14.890  0.00  0.00    -0.273 OA
ATOM      8  N   GLN A   6      27.966  -8.578  13.398  0.00  0.00    -0.297 N 
ATOM      9  H   GLN A   6      28.250  -7.813  12.753  0.00  0.00    +0.150 HD
BRANCH   8  10
ATOM     10  CA  GLN A   6      28.798  -9.775  13.489  0.00  0.00    +0.149 C 
BRANCH  10  11
ATOM     11  C   GLN A   6      29.999  -9.470  14.380  0.00  0.00    +0.241 C 
ATOM     12  N   SER A   7      29.808  -8.498  15.266  0.00  0.00    -0.295 N 
ATOM     13  H   SER A   7      28.885  -8.018  15.283  0.00  0.00    +0.150 HD
ATOM     14  O   GLN A   6      31.061 -10.089  14.265  0.00  0.00    -0.273 OA
BRANCH  12  15
ATOM     15  CA  SER A   7      30.828  -8.072  16.214  0.00  0.00    +0.178 C 
BRANCH  15  16
ATOM     16  C   SER A   7      30.101  -7.393  17.372  0.00  0.00    +0.243 C 
ATOM     17  N   ALA A   8      29.729  -8.198  18.363  0.00  0.00    -0.298 N 
ATOM     18  H   ALA A   8      29.970  -9.207  18.293  0.00  0.00    +0.150 HD
ATOM     19  O   SER A   7      29.881  -6.181  17.358  0.00  0.00    -0.273 OA
BRANCH  17  20
ATOM     20  CA  ALA A   8      29.000  -7.742  19.544  0.00  0.00    +0.137 C 
ATOM     21  CB  ALA A   8      29.016  -8.841  20.602  0.00  0.00    +0.030 C 
BRANCH  20  22
ATOM     22  C   ALA A   8      29.468  -6.425  20.162  0.00  0.00    +0.227 C 
ATOM     23  O   ALA A   8      28.647  -5.624  20.608  0.00  0.00    -0.286 OA
ENDBRANCH  20  22
ENDBRANCH  17  20
ENDBRANCH  15  16
BRANCH  15  24
ATOM     24  CB  SER A   7      31.795  -7.090  15.556  0.00  0.00    +0.166 C 
BRANCH  24  25
ATOM     25  OG  SER A   7      32.827  -6.724  16.456  0.00  0.00    -0.380 OA
ATOM     26  H   SER A   7      32.430  -6.296  17.255  0.00  0.00    +0.211 HD
ENDBRANCH  24  25
ENDBRANCH  15  24
ENDBRANCH  12  15
ENDBRANCH  10  11
BRANCH  10  27
ATOM     27  CB  GLN A   6      29.265 -10.217  12.093  0.00  0.00    +0.039 C 
BRANCH  27  28
ATOM     28  CG  GLN A   6      28.131 -10.691  11.178  0.00  0.00    +0.087 C 
BRANCH  28  29
ATOM     29  CD  GLN A   6      28.618 -11.143   9.807  0.00  0.00    +0.219 C 
ATOM     30  OE1 GLN A   6      29.428 -12.067   9.694  0.00  0.00    -0.275 OA
ATOM     31  NE2 GLN A   6      28.120 -10.495   8.756  0.00  0.00    -0.329 N 
ATOM     32 HE21 GLN A   6      27.439  -9.722   8.897  0.00  0.00    +0.145 HD
ATOM     33 HE22 GLN A   6      28.412 -10.762   7.794  0.00  0.00    +0.145 HD
ENDBRANCH  28  29
ENDBRANCH  27  28
ENDBRANCH  10  27
ENDBRANCH   8  10
ENDBRANCH   5   6
BRANCH   5  34
ATOM     34  CB  ARG A   5      26.799  -6.018  14.705  0.00  0.00    +0.033 C 
BRANCH  34  35
ATOM     35  CG  ARG A   5      26.274  -4.617  14.417  0.00  0.00    +0.045 C 
BRANCH  35  36
ATOM     36  CD  ARG A   5      26.873  -3.598  15.375  0.00  0.00    +0.174 C 
BRANCH  36  37
ATOM     37  NE  ARG A   5      26.504  -2.226  15.029  0.00  0.00    -0.265 N 
ATOM     38  HE  ARG A   5      25.732  -1.781  15.566  0.00  0.00    +0.259 HD
ATOM     39  CZ  ARG A   5      27.088  -1.508  14.074  0.00  0.00    +0.342 C 
ATOM     40  NH2 ARG A   5      26.677  -0.272  13.826  0.00  0.00    -0.292 N 
ATOM     41 HH21 ARG A   5      25.897   0.137  14.379  0.00  0.00    +0.255 HD
ATOM     42 HH22 ARG A   5      27.135   0.288  13.079  0.00  0.00    +0.255 HD
ATOM     43  NH1 ARG A   5      28.081  -2.023  13.361  0.00  0.00    -0.292 N 
ATOM     44 HH11 ARG A   5      28.407  -2.993  13.548  0.00  0.00    +0.255 HD
ATOM     45 HH12 ARG A   5      28.534  -1.457  12.615  0.00  0.00    +0.255 HD
ENDBRANCH  36  37
ENDBRANCH  35  36
ENDBRANCH  34  35
ENDBRANCH   5  34
ENDBRANCH   2   5
BRANCH   1  46
ATOM     46  CA  GLY A   4      22.449  -8.124  14.386  0.00  0.00    +0.176 C 
BRANCH  46  49
ATOM     47  C   THR A   3      22.575  -7.915  16.794  0.00  0.00    +0.243 C 
ATOM     48  O   THR A   3      22.830  -9.113  16.928  0.00  0.00    -0.273 OA
ATOM     49  N   GLY A   4      22.363  -7.347  15.609  0.00  0.00    -0.295 N 
ATOM     50  H   GLY A   4      22.133  -6.334  15.559  0.00  0.00    +0.150 HD
BRANCH  47  51
ATOM     51  CA  THR A   3      22.476  -6.992  18.010  0.00  0.00    +0.176 C 
BRANCH  51  54
ATOM     52  C   THR A   2      20.793  -7.379  19.723  0.00  0.00    +0.243 C 
ATOM     53  O   THR A   2      20.062  -6.493  19.285  0.00  0.00    -0.273 OA
ATOM     54  N   THR A   3      21.967  -7.688  19.183  0.00  0.00    -0.295 N 
ATOM     55  H   THR A   3      22.537  -8.446  19.609  0.00  0.00    +0.150 HD
BRANCH  52  56
ATOM     56  CA  THR A   2      20.377  -8.180  20.944  0.00  0.00    +0.176 C 
BRANCH  56  59
ATOM     57  C   ARG A   1      20.775  -6.550  22.709  0.00  0.00    +0.238 C 
ATOM     58  O   ARG A   1      21.999  -6.661  22.623  0.00  0.00    -0.274 OA
ATOM     59  N   THR A   2      19.927  -7.238  21.958  0.00  0.00    -0.295 N 
ATOM     60  H   THR A   2      18.906  -7.100  22.098  0.00  0.00    +0.150 HD
BRANCH  57  61
ATOM     61  CA  ARG A   1      20.128  -5.589  23.703  0.00  0.00    +0.145 C 
BRANCH  61  62
ATOM     62  N   ARG A   1      20.525  -5.775  25.090  0.00  0.00    -0.238 NA
ATOM     63  H   ARG A   1      21.399  -5.332  25.439  0.00  0.00    +0.142 HD
ENDBRANCH  61  62
BRANCH  61  64
ATOM     64  CB  ARG A   1      20.395  -4.140  23.274  0.00  0.00    +0.030 C 
BRANCH  64  65
ATOM     65  CG  ARG A   1      19.905  -3.831  21.873  0.00  0.00    +0.045 C 
BRANCH  65  66
ATOM     66  CD  ARG A   1      19.850  -2.343  21.592  0.00  0.00    +0.174 C 
BRANCH  66  67
ATOM     67  NE  ARG A   1      19.297  -2.102  20.264  0.00  0.00    -0.265 N 
ATOM     68  HE  ARG A   1      18.326  -1.735  20.200  0.00  0.00    +0.259 HD
ATOM     69  CZ  ARG A   1      19.955  -2.322  19.130  0.00  0.00    +0.342 C 
ATOM     70  NH2 ARG A   1      21.202  -2.779  19.160  0.00  0.00    -0.292 N 
ATOM     71 HH21 ARG A   1      21.666  -2.965  20.072  0.00  0.00    +0.255 HD
ATOM     72 HH22 ARG A   1      21.715  -2.950  18.271  0.00  0.00    +0.255 HD
ATOM     73  NH1 ARG A   1      19.354  -2.117  17.966  0.00  0.00    -0.292 N 
ATOM     74 HH11 ARG A   1      18.369  -1.784  17.941  0.00  0.00    +0.255 HD
ATOM     75 HH12 ARG A   1      19.868  -2.289  17.078  0.00  0.00    +0.255 HD
ENDBRANCH  66  67
ENDBRANCH  65  66
ENDBRANCH  64  65
ENDBRANCH  61  64
ENDBRANCH  57  61
ENDBRANCH  56  59
BRANCH  56  76
ATOM     76  CB  THR A   2      19.248  -9.137  20.535  0.00  0.00    +0.137 C 
ATOM     77  CG2 THR A   2      19.712 -10.063  19.416  0.00  0.00    +0.034 C 
BRANCH  76  78
ATOM     78  OG1 THR A   2      18.845  -9.911  21.669  0.00  0.00    -0.382 OA
ATOM     79  HG1 THR A   2      18.117 -10.528  21.404  0.00  0.00    +0.210 HD
ENDBRANCH  76  78
ENDBRANCH  56  76
ENDBRANCH  52  56
ENDBRANCH  51  54
BRANCH  51  80
ATOM     80  CB  THR A   3      23.869  -6.387  18.287  0.00  0.00    +0.137 C 
ATOM     81  CG2 THR A   3      24.856  -7.475  18.689  0.00  0.00    +0.034 C 
BRANCH  80  82
ATOM     82  OG1 THR A   3      24.348  -5.727  17.109  0.00  0.00    -0.382 OA
ATOM     83  HG1 THR A   3      23.719  -5.005  16.858  0.00  0.00    +0.210 HD
ENDBRANCH  80  82
ENDBRANCH  51  80
ENDBRANCH  47  51
ENDBRANCH  46  49
ENDBRANCH   1  46
TORSDOF 33
REMARK  Name = ../refined-set-2016/1n4k/1n4k_pocket.pdb
REMARK  130 active torsions:
REMARK  status: ('A' for Active; 'I' for Inactive)
REMARK    1  A    between atoms: _1  and  _3
REMARK    2  A    between atoms: _3  and  _4
REMARK    3  A    between atoms: _3  and  _6
REMARK    4  A    between atoms: _6  and  _7
REMARK    5  A    between atoms: _7  and  _8
REMARK    6  A    between atoms: _8  and  _9
REMARK    7  A    between atoms: _18  and  _20
REMARK    8  A    between atoms: _20  and  _21
REMARK    9  A    between atoms: _20  and  _23
REMARK   10  A    between atoms: _23  and  _24
REMARK   11  A    between atoms: _27  and  _29
REMARK   12  A    between atoms: _29  and  _30
REMARK   13  A    between atoms: _29  and  _32
REMARK   14  A    between atoms: _32  and  _33
REMARK   15  A    between atoms: _36  and  _38
REMARK   16  A    between atoms: _38  and  _39
REMARK   17  A    between atoms: _41  and  _43
REMARK   18  A    between atoms: _43  and  _44
REMARK   19  A    between atoms: _43  and  _46
REMARK   20  A    between atoms: _46  and  _47
REMARK   21  A    between atoms: _47  and  _48
REMARK   22  A    between atoms: _48  and  _49
REMARK   23  A    between atoms: _58  and  _60
REMARK   24  A    between atoms: _60  and  _61
REMARK   25  A    between atoms: _60  and  _63
REMARK   26  A    between atoms: _63  and  _64
REMARK   27  A    between atoms: _64  and  _65
REMARK   28  A    between atoms: _70  and  _72
REMARK   29  A    between atoms: _72  and  _73
REMARK   30  A    between atoms: _72  and  _75
REMARK   31  A    between atoms: _75  and  _76
REMARK   32  A    between atoms: _78  and  _80
REMARK   33  A    between atoms: _80  and  _81
REMARK   34  A    between atoms: _84  and  _86
REMARK   35  A    between atoms: _86  and  _87
REMARK   36  A    between atoms: _86  and  _89
REMARK   37  A    between atoms: _89  and  _90
REMARK   38  A    between atoms: _92  and  _94
REMARK   39  A    between atoms: _94  and  _95
REMARK   40  A    between atoms: _98  and  _100
REMARK   41  A    between atoms: _100  and  _101
REMARK   42  A    between atoms: _100  and  _103
REMARK   43  A    between atoms: _103  and  _104
REMARK   44  A    between atoms: _107  and  _109
REMARK   45  A    between atoms: _109  and  _110
REMARK   46  A    between atoms: _109  and  _112
REMARK   47  A    between atoms: _112  and  _113
REMARK   48  A    between atoms: _115  and  _117
REMARK   49  A    between atoms: _117  and  _118
REMARK   50  A    between atoms: _117  and  _120
REMARK   51  A    between atoms: _120  and  _121
REMARK   52  A    between atoms: _123  and  _125
REMARK   53  A    between atoms: _125  and  _126
REMARK   54  A    between atoms: _125  and  _128
REMARK   55  A    between atoms: _128  and  _129
REMARK   56  A    between atoms: _129  and  _130
REMARK   57  A    between atoms: _130  and  _131
REMARK   58  A    between atoms: _131  and  _132
REMARK   59  A    between atoms: _136  and  _138
REMARK   60  A    between atoms: _138  and  _139
REMARK   61  A    between atoms: _138  and  _141
REMARK   62  A    between atoms: _144  and  _146
REMARK   63  A    between atoms: _146  and  _147
REMARK   64  A    between atoms: _146  and  _149
REMARK   65  A    between atoms: _149  and  _150
REMARK   66  A    between atoms: _150  and  _151
REMARK   67  A    between atoms: _151  and  _152
REMARK   68  A    between atoms: _161  and  _163
REMARK   69  A    between atoms: _163  and  _164
REMARK   70  A    between atoms: _163  and  _166
REMARK   71  A    between atoms: _166  and  _167
REMARK   72  A    between atoms: _167  and  _168
REMARK   73  A    between atoms: _171  and  _173
REMARK   74  A    between atoms: _173  and  _174
REMARK   75  A    between atoms: _173  and  _176
REMARK   76  A    between atoms: _176  and  _177
REMARK   77  A    between atoms: _177  and  _178
REMARK   78  A    between atoms: _183  and  _185
REMARK   79  A    between atoms: _185  and  _186
REMARK   80  A    between atoms: _185  and  _188
REMARK   81  A    between atoms: _188  and  _189
REMARK   82  A    between atoms: _189  and  _190
REMARK   83  A    between atoms: _190  and  _191
REMARK   84  A    between atoms: _191  and  _192
REMARK   85  A    between atoms: _196  and  _198
REMARK   86  A    between atoms: _198  and  _199
REMARK   87  A    between atoms: _198  and  _201
REMARK   88  A    between atoms: _201  and  _202
REMARK   89  A    between atoms: _205  and  _207
REMARK   90  A    between atoms: _207  and  _208
REMARK   91  A    between atoms: _207  and  _210
REMARK   92  A    between atoms: _210  and  _211
REMARK   93  A    between atoms: _211  and  _212
REMARK   94  A    between atoms: _212  and  _213
REMARK   95  A    between atoms: _222  and  _224
REMARK   96  A    between atoms: _224  and  _225
REMARK   97  A    between atoms: _224  and  _227
REMARK   98  A    between atoms: _227  and  _228
REMARK   99  A    between atoms: _228  and  _229
REMARK  100  A    between atoms: _232  and  _234
REMARK  101  A    between atoms: _234  and  _235
REMARK  102  A    between atoms: _234  and  _237
REMARK  103  A    between atoms: _237  and  _238
REMARK  104  A    between atoms: _241  and  _243
REMARK  105  A    between atoms: _243  and  _244
REMARK  106  A    between atoms: _243  and  _246
REMARK  107  A    between atoms: _246  and  _247
REMARK  108  A    between atoms: _252  and  _253
REMARK  109  A    between atoms: _255  and  _257
REMARK  110  A    between atoms: _257  and  _258
REMARK  111  A    between atoms: _257  and  _260
REMARK  112  A    between atoms: _260  and  _261
REMARK  113  A    between atoms: _261  and  _262
REMARK  114  A    between atoms: _262  and  _263
REMARK  115  A    between atoms: _272  and  _274
REMARK  116  A    between atoms: _274  and  _275
REMARK  117  A    between atoms: _274  and  _277
REMARK  118  A    between atoms: _277  and  _278
REMARK  119  A    between atoms: _278  and  _279
REMARK  120  A    between atoms: _279  and  _280
REMARK  121  A    between atoms: _280  and  _281
REMARK  122  A    between atoms: _285  and  _287
REMARK  123  A    between atoms: _287  and  _288
REMARK  124  A    between atoms: _287  and  _290
REMARK  125  A    between atoms: _290  and  _291
REMARK  126  A    between atoms: _296  and  _298
REMARK  127  A    between atoms: _298  and  _299
REMARK  128  A    between atoms: _298  and  _301
REMARK  129  A    between atoms: _301  and  _302
REMARK  130  A    between atoms: _302  and  _303
REMARK                            x       y       z     vdW  Elec       q    Type
REMARK                         _______ _______ _______ _____ _____    ______ ____
ROOT
ATOM      1  CA  THR A   3      27.553   0.807  20.717  0.00  0.00    +0.176 C 
ENDROOT
BRANCH   1   4
ATOM      2  C   ALA A   2      26.786  -1.382  19.967  0.00  0.00    +0.241 C 
ATOM      3  O   ALA A   2      26.171  -1.594  21.014  0.00  0.00    -0.273 OA
ATOM      4  N   THR A   3      27.463  -0.262  19.733  0.00  0.00    -0.295 N 
ATOM      5  H   THR A   3      27.944  -0.146  18.818  0.00  0.00    +0.150 HD
BRANCH   2   6
ATOM      6  CA  ALA A   2      26.809  -2.417  18.848  0.00  0.00    +0.149 C 
ATOM      7  CB  ALA A   2      25.903  -3.591  19.198  0.00  0.00    +0.031 C 
BRANCH   6   9
ATOM      8  C   SER A   1      29.049  -2.194  17.921  0.00  0.00    +0.241 C 
ATOM      9  N   ALA A   2      28.180  -2.885  18.650  0.00  0.00    -0.297 N 
ATOM     10  H   ALA A   2      28.481  -3.778  19.089  0.00  0.00    +0.150 HD
ATOM     11  O   SER A   1      28.759  -1.136  17.361  0.00  0.00    -0.274 OA
BRANCH   8  12
ATOM     12  CA  SER A   1      30.452  -2.783  17.786  0.00  0.00    +0.174 C 
BRANCH  12  13
ATOM     13  N   SER A   1      30.665  -3.908  18.697  0.00  0.00    -0.236 NA
ATOM     14  H   SER A   1      30.450  -4.872  18.371  0.00  0.00    +0.142 HD
ENDBRANCH  12  13
BRANCH  12  15
ATOM     15  CB  SER A   1      30.671  -3.222  16.332  0.00  0.00    +0.163 C 
BRANCH  15  16
ATOM     16  OG  SER A   1      32.002  -3.661  16.123  0.00  0.00    -0.380 OA
ATOM     17  H   SER A   1      32.192  -4.430  16.717  0.00  0.00    +0.211 HD
ENDBRANCH  15  16
ENDBRANCH  12  15
ENDBRANCH   8  12
ENDBRANCH   6   9
ENDBRANCH   2   6
ENDBRANCH   1   4
BRANCH   1  18
ATOM     18  C   THR A   3      26.460   1.868  20.580  0.00  0.00    +0.243 C 
ATOM     19  N   SER A   4      25.619   1.947  21.607  0.00  0.00    -0.295 N 
ATOM     20  H   SER A   4      25.756   1.304  22.413  0.00  0.00    +0.150 HD
ATOM     21  O   THR A   3      26.386   2.593  19.579  0.00  0.00    -0.273 OA
BRANCH  19  22
ATOM     22  CA  SER A   4      24.512   2.897  21.653  0.00  0.00    +0.178 C 
BRANCH  22  23
ATOM     23  C   SER A   4      24.648   3.865  22.827  0.00  0.00    +0.243 C 
ATOM     24  O   SER A   4      25.060   3.475  23.925  0.00  0.00    -0.273 OA
ATOM     25  N   SER A   5      24.290   5.125  22.595  0.00  0.00    -0.296 N 
ATOM     26  H   SER A   5      23.959   5.392  21.646  0.00  0.00    +0.150 HD
BRANCH  25  27
ATOM     27  CA  SER A   5      24.351   6.141  23.640  0.00  0.00    +0.166 C 
BRANCH  27  28
ATOM     28  C   SER A   5      23.427   5.750  24.794  0.00  0.00    +0.229 C 
ATOM     29  O   SER A   5      23.575   6.241  25.912  0.00  0.00    -0.286 OA
ENDBRANCH  27  28
BRANCH  27  30
ATOM     30  CB  SER A   5      23.923   7.503  23.082  0.00  0.00    +0.165 C 
BRANCH  30  31
ATOM     31  OG  SER A   5      22.609   7.436  22.547  0.00  0.00    -0.380 OA
ATOM     32  H   SER A   5      22.585   6.768  21.816  0.00  0.00    +0.211 HD
ENDBRANCH  30  31
ENDBRANCH  27  30
ENDBRANCH  25  27
ENDBRANCH  22  23
BRANCH  22  33
ATOM     33  CB  SER A   4      23.191   2.141  21.778  0.00  0.00    +0.166 C 
BRANCH  33  34
ATOM     34  OG  SER A   4      22.117   3.028  22.045  0.00  0.00    -0.380 OA
ATOM     35  H   SER A   4      22.039   3.682  21.306  0.00  0.00    +0.211 HD
ENDBRANCH  33  34
ENDBRANCH  22  33
ENDBRANCH  19  22
ENDBRANCH   1  18
BRANCH   1  36
ATOM     36  CB  THR A   3      28.923   1.491  20.646  0.00  0.00    +0.137 C 
ATOM     37  CG2 THR A   3      30.019   0.520  21.094  0.00  0.00    +0.034 C 
BRANCH  36  38
ATOM     38  OG1 THR A   3      29.178   1.910  19.298  0.00  0.00    -0.382 OA
ATOM     39  HG1 THR A   3      28.475   2.546  19.013  0.00  0.00    +0.210 HD
ENDBRANCH  36  38
ENDBRANCH   1  36
TORSDOF 18
REMARK  Name = ../refined-set-2016/1n4k/1n4k_pocket.pdb
REMARK  130 active torsions:
REMARK  status: ('A' for Active; 'I' for Inactive)
REMARK    1  A    between atoms: _1  and  _3
REMARK    2  A    between atoms: _3  and  _4
REMARK    3  A    between atoms: _3  and  _6
REMARK    4  A    between atoms: _6  and  _7
REMARK    5  A    between atoms: _7  and  _8
REMARK    6  A    between atoms: _8  and  _9
REMARK    7  A    between atoms: _18  and  _20
REMARK    8  A    between atoms: _20  and  _21
REMARK    9  A    between atoms: _20  and  _23
REMARK   10  A    between atoms: _23  and  _24
REMARK   11  A    between atoms: _27  and  _29
REMARK   12  A    between atoms: _29  and  _30
REMARK   13  A    between atoms: _29  and  _32
REMARK   14  A    between atoms: _32  and  _33
REMARK   15  A    between atoms: _36  and  _38
REMARK   16  A    between atoms: _38  and  _39
REMARK   17  A    between atoms: _41  and  _43
REMARK   18  A    between atoms: _43  and  _44
REMARK   19  A    between atoms: _43  and  _46
REMARK   20  A    between atoms: _46  and  _47
REMARK   21  A    between atoms: _47  and  _48
REMARK   22  A    between atoms: _48  and  _49
REMARK   23  A    between atoms: _58  and  _60
REMARK   24  A    between atoms: _60  and  _61
REMARK   25  A    between atoms: _60  and  _63
REMARK   26  A    between atoms: _63  and  _64
REMARK   27  A    between atoms: _64  and  _65
REMARK   28  A    between atoms: _70  and  _72
REMARK   29  A    between atoms: _72  and  _73
REMARK   30  A    between atoms: _72  and  _75
REMARK   31  A    between atoms: _75  and  _76
REMARK   32  A    between atoms: _78  and  _80
REMARK   33  A    between atoms: _80  and  _81
REMARK   34  A    between atoms: _84  and  _86
REMARK   35  A    between atoms: _86  and  _87
REMARK   36  A    between atoms: _86  and  _89
REMARK   37  A    between atoms: _89  and  _90
REMARK   38  A    between atoms: _92  and  _94
REMARK   39  A    between atoms: _94  and  _95
REMARK   40  A    between atoms: _98  and  _100
REMARK   41  A    between atoms: _100  and  _101
REMARK   42  A    between atoms: _100  and  _103
REMARK   43  A    between atoms: _103  and  _104
REMARK   44  A    between atoms: _107  and  _109
REMARK   45  A    between atoms: _109  and  _110
REMARK   46  A    between atoms: _109  and  _112
REMARK   47  A    between atoms: _112  and  _113
REMARK   48  A    between atoms: _115  and  _117
REMARK   49  A    between atoms: _117  and  _118
REMARK   50  A    between atoms: _117  and  _120
REMARK   51  A    between atoms: _120  and  _121
REMARK   52  A    between atoms: _123  and  _125
REMARK   53  A    between atoms: _125  and  _126
REMARK   54  A    between atoms: _125  and  _128
REMARK   55  A    between atoms: _128  and  _129
REMARK   56  A    between atoms: _129  and  _130
REMARK   57  A    between atoms: _130  and  _131
REMARK   58  A    between atoms: _131  and  _132
REMARK   59  A    between atoms: _136  and  _138
REMARK   60  A    between atoms: _138  and  _139
REMARK   61  A    between atoms: _138  and  _141
REMARK   62  A    between atoms: _144  and  _146
REMARK   63  A    between atoms: _146  and  _147
REMARK   64  A    between atoms: _146  and  _149
REMARK   65  A    between atoms: _149  and  _150
REMARK   66  A    between atoms: _150  and  _151
REMARK   67  A    between atoms: _151  and  _152
REMARK   68  A    between atoms: _161  and  _163
REMARK   69  A    between atoms: _163  and  _164
REMARK   70  A    between atoms: _163  and  _166
REMARK   71  A    between atoms: _166  and  _167
REMARK   72  A    between atoms: _167  and  _168
REMARK   73  A    between atoms: _171  and  _173
REMARK   74  A    between atoms: _173  and  _174
REMARK   75  A    between atoms: _173  and  _176
REMARK   76  A    between atoms: _176  and  _177
REMARK   77  A    between atoms: _177  and  _178
REMARK   78  A    between atoms: _183  and  _185
REMARK   79  A    between atoms: _185  and  _186
REMARK   80  A    between atoms: _185  and  _188
REMARK   81  A    between atoms: _188  and  _189
REMARK   82  A    between atoms: _189  and  _190
REMARK   83  A    between atoms: _190  and  _191
REMARK   84  A    between atoms: _191  and  _192
REMARK   85  A    between atoms: _196  and  _198
REMARK   86  A    between atoms: _198  and  _199
REMARK   87  A    between atoms: _198  and  _201
REMARK   88  A    between atoms: _201  and  _202
REMARK   89  A    between atoms: _205  and  _207
REMARK   90  A    between atoms: _207  and  _208
REMARK   91  A    between atoms: _207  and  _210
REMARK   92  A    between atoms: _210  and  _211
REMARK   93  A    between atoms: _211  and  _212
REMARK   94  A    between atoms: _212  and  _213
REMARK   95  A    between atoms: _222  and  _224
REMARK   96  A    between atoms: _224  and  _225
REMARK   97  A    between atoms: _224  and  _227
REMARK   98  A    between atoms: _227  and  _228
REMARK   99  A    between atoms: _228  and  _229
REMARK  100  A    between atoms: _232  and  _234
REMARK  101  A    between atoms: _234  and  _235
REMARK  102  A    between atoms: _234  and  _237
REMARK  103  A    between atoms: _237  and  _238
REMARK  104  A    between atoms: _241  and  _243
REMARK  105  A    between atoms: _243  and  _244
REMARK  106  A    between atoms: _243  and  _246
REMARK  107  A    between atoms: _246  and  _247
REMARK  108  A    between atoms: _252  and  _253
REMARK  109  A    between atoms: _255  and  _257
REMARK  110  A    between atoms: _257  and  _258
REMARK  111  A    between atoms: _257  and  _260
REMARK  112  A    between atoms: _260  and  _261
REMARK  113  A    between atoms: _261  and  _262
REMARK  114  A    between atoms: _262  and  _263
REMARK  115  A    between atoms: _272  and  _274
REMARK  116  A    between atoms: _274  and  _275
REMARK  117  A    between atoms: _274  and  _277
REMARK  118  A    between atoms: _277  and  _278
REMARK  119  A    between atoms: _278  and  _279
REMARK  120  A    between atoms: _279  and  _280
REMARK  121  A    between atoms: _280  and  _281
REMARK  122  A    between atoms: _285  and  _287
REMARK  123  A    between atoms: _287  and  _288
REMARK  124  A    between atoms: _287  and  _290
REMARK  125  A    between atoms: _290  and  _291
REMARK  126  A    between atoms: _296  and  _298
REMARK  127  A    between atoms: _298  and  _299
REMARK  128  A    between atoms: _298  and  _301
REMARK  129  A    between atoms: _301  and  _302
REMARK  130  A    between atoms: _302  and  _303
REMARK                            x       y       z     vdW  Elec       q    Type
REMARK                         _______ _______ _______ _____ _____    ______ ____
ROOT
ATOM      1  CG  LYS A   1      14.862 -10.605  15.269  0.00  0.00    -0.000 C 
ENDROOT
BRANCH   1   2
ATOM      2  CB  LYS A   1      13.375 -10.502  14.943  0.00  0.00    +0.025 C 
BRANCH   2   3
ATOM      3  CA  LYS A   1      12.460 -10.656  16.162  0.00  0.00    +0.133 C 
BRANCH   3   4
ATOM      4  N   LYS A   1      11.060 -10.514  15.778  0.00  0.00    -0.239 NA
ATOM      5  H   LYS A   1      10.411 -11.318  15.895  0.00  0.00    +0.142 HD
ENDBRANCH   3   4
BRANCH   3   6
ATOM      6  C   LYS A   1      12.794  -9.579  17.197  0.00  0.00    +0.224 C 
ATOM      7  O   LYS A   1      13.529  -8.633  16.915  0.00  0.00    -0.287 OA
ENDBRANCH   3   6
ENDBRANCH   2   3
ENDBRANCH   1   2
BRANCH   1   8
ATOM      8  CD  LYS A   1      15.729 -10.288  14.058  0.00  0.00    -0.024 C 
BRANCH   8   9
ATOM      9  CE  LYS A   1      17.214 -10.364  14.402  0.00  0.00    -0.086 C 
BRANCH   9  10
ATOM     10  NZ  LYS A   1      17.609  -9.388  15.460  0.00  0.00    +0.380 N 
ATOM     11  HZ1 LYS A   1      17.069  -9.582  16.328  0.00  0.00    -0.089 HD
ATOM     12  HZ2 LYS A   1      18.626  -9.482  15.655  0.00  0.00    -0.089 HD
ATOM     13  HZ3 LYS A   1      17.406  -8.422  15.132  0.00  0.00    -0.089 HD
ENDBRANCH   9  10
ENDBRANCH   8   9
ENDBRANCH   1   8
TORSDOF 7
REMARK  Name = ../refined-set-2016/1n4k/1n4k_pocket.pdb
REMARK  130 active torsions:
REMARK  status: ('A' for Active; 'I' for Inactive)
REMARK    1  A    between atoms: _1  and  _3
REMARK    2  A    between atoms: _3  and  _4
REMARK    3  A    between atoms: _3  and  _6
REMARK    4  A    between atoms: _6  and  _7
REMARK    5  A    between atoms: _7  and  _8
REMARK    6  A    between atoms: _8  and  _9
REMARK    7  A    between atoms: _18  and  _20
REMARK    8  A    between atoms: _20  and  _21
REMARK    9  A    between atoms: _20  and  _23
REMARK   10  A    between atoms: _23  and  _24
REMARK   11  A    between atoms: _27  and  _29
REMARK   12  A    between atoms: _29  and  _30
REMARK   13  A    between atoms: _29  and  _32
REMARK   14  A    between atoms: _32  and  _33
REMARK   15  A    between atoms: _36  and  _38
REMARK   16  A    between atoms: _38  and  _39
REMARK   17  A    between atoms: _41  and  _43
REMARK   18  A    between atoms: _43  and  _44
REMARK   19  A    between atoms: _43  and  _46
REMARK   20  A    between atoms: _46  and  _47
REMARK   21  A    between atoms: _47  and  _48
REMARK   22  A    between atoms: _48  and  _49
REMARK   23  A    between atoms: _58  and  _60
REMARK   24  A    between atoms: _60  and  _61
REMARK   25  A    between atoms: _60  and  _63
REMARK   26  A    between atoms: _63  and  _64
REMARK   27  A    between atoms: _64  and  _65
REMARK   28  A    between atoms: _70  and  _72
REMARK   29  A    between atoms: _72  and  _73
REMARK   30  A    between atoms: _72  and  _75
REMARK   31  A    between atoms: _75  and  _76
REMARK   32  A    between atoms: _78  and  _80
REMARK   33  A    between atoms: _80  and  _81
REMARK   34  A    between atoms: _84  and  _86
REMARK   35  A    between atoms: _86  and  _87
REMARK   36  A    between atoms: _86  and  _89
REMARK   37  A    between atoms: _89  and  _90
REMARK   38  A    between atoms: _92  and  _94
REMARK   39  A    between atoms: _94  and  _95
REMARK   40  A    between atoms: _98  and  _100
REMARK   41  A    between atoms: _100  and  _101
REMARK   42  A    between atoms: _100  and  _103
REMARK   43  A    between atoms: _103  and  _104
REMARK   44  A    between atoms: _107  and  _109
REMARK   45  A    between atoms: _109  and  _110
REMARK   46  A    between atoms: _109  and  _112
REMARK   47  A    between atoms: _112  and  _113
REMARK   48  A    between atoms: _115  and  _117
REMARK   49  A    between atoms: _117  and  _118
REMARK   50  A    between atoms: _117  and  _120
REMARK   51  A    between atoms: _120  and  _121
REMARK   52  A    between atoms: _123  and  _125
REMARK   53  A    between atoms: _125  and  _126
REMARK   54  A    between atoms: _125  and  _128
REMARK   55  A    between atoms: _128  and  _129
REMARK   56  A    between atoms: _129  and  _130
REMARK   57  A    between atoms: _130  and  _131
REMARK   58  A    between atoms: _131  and  _132
REMARK   59  A    between atoms: _136  and  _138
REMARK   60  A    between atoms: _138  and  _139
REMARK   61  A    between atoms: _138  and  _141
REMARK   62  A    between atoms: _144  and  _146
REMARK   63  A    between atoms: _146  and  _147
REMARK   64  A    between atoms: _146  and  _149
REMARK   65  A    between atoms: _149  and  _150
REMARK   66  A    between atoms: _150  and  _151
REMARK   67  A    between atoms: _151  and  _152
REMARK   68  A    between atoms: _161  and  _163
REMARK   69  A    between atoms: _163  and  _164
REMARK   70  A    between atoms: _163  and  _166
REMARK   71  A    between atoms: _166  and  _167
REMARK   72  A    between atoms: _167  and  _168
REMARK   73  A    between atoms: _171  and  _173
REMARK   74  A    between atoms: _173  and  _174
REMARK   75  A    between atoms: _173  and  _176
REMARK   76  A    between atoms: _176  and  _177
REMARK   77  A    between atoms: _177  and  _178
REMARK   78  A    between atoms: _183  and  _185
REMARK   79  A    between atoms: _185  and  _186
REMARK   80  A    between atoms: _185  and  _188
REMARK   81  A    between atoms: _188  and  _189
REMARK   82  A    between atoms: _189  and  _190
REMARK   83  A    between atoms: _190  and  _191
REMARK   84  A    between atoms: _191  and  _192
REMARK   85  A    between atoms: _196  and  _198
REMARK   86  A    between atoms: _198  and  _199
REMARK   87  A    between atoms: _198  and  _201
REMARK   88  A    between atoms: _201  and  _202
REMARK   89  A    between atoms: _205  and  _207
REMARK   90  A    between atoms: _207  and  _208
REMARK   91  A    between atoms: _207  and  _210
REMARK   92  A    between atoms: _210  and  _211
REMARK   93  A    between atoms: _211  and  _212
REMARK   94  A    between atoms: _212  and  _213
REMARK   95  A    between atoms: _222  and  _224
REMARK   96  A    between atoms: _224  and  _225
REMARK   97  A    between atoms: _224  and  _227
REMARK   98  A    between atoms: _227  and  _228
REMARK   99  A    between atoms: _228  and  _229
REMARK  100  A    between atoms: _232  and  _234
REMARK  101  A    between atoms: _234  and  _235
REMARK  102  A    between atoms: _234  and  _237
REMARK  103  A    between atoms: _237  and  _238
REMARK  104  A    between atoms: _241  and  _243
REMARK  105  A    between atoms: _243  and  _244
REMARK  106  A    between atoms: _243  and  _246
REMARK  107  A    between atoms: _246  and  _247
REMARK  108  A    between atoms: _252  and  _253
REMARK  109  A    between atoms: _255  and  _257
REMARK  110  A    between atoms: _257  and  _258
REMARK  111  A    between atoms: _257  and  _260
REMARK  112  A    between atoms: _260  and  _261
REMARK  113  A    between atoms: _261  and  _262
REMARK  114  A    between atoms: _262  and  _263
REMARK  115  A    between atoms: _272  and  _274
REMARK  116  A    between atoms: _274  and  _275
REMARK  117  A    between atoms: _274  and  _277
REMARK  118  A    between atoms: _277  and  _278
REMARK  119  A    between atoms: _278  and  _279
REMARK  120  A    between atoms: _279  and  _280
REMARK  121  A    between atoms: _280  and  _281
REMARK  122  A    between atoms: _285  and  _287
REMARK  123  A    between atoms: _287  and  _288
REMARK  124  A    between atoms: _287  and  _290
REMARK  125  A    between atoms: _290  and  _291
REMARK  126  A    between atoms: _296  and  _298
REMARK  127  A    between atoms: _298  and  _299
REMARK  128  A    between atoms: _298  and  _301
REMARK  129  A    between atoms: _301  and  _302
REMARK  130  A    between atoms: _302  and  _303
REMARK                            x       y       z     vdW  Elec       q    Type
REMARK                         _______ _______ _______ _____ _____    ______ ____
ROOT
ATOM      1  CA  VAL A   1      15.797  -7.295  20.703  0.00  0.00    +0.133 C 
ENDROOT
BRANCH   1   2
ATOM      2  CB  VAL A   1      16.472  -6.269  19.770  0.00  0.00    +0.023 C 
ATOM      3  CG2 VAL A   1      15.774  -4.922  19.877  0.00  0.00    +0.002 C 
ATOM      4  CG1 VAL A   1      16.432  -6.777  18.337  0.00  0.00    +0.002 C 
ENDBRANCH   1   2
BRANCH   1   5
ATOM      5  N   VAL A   1      14.399  -7.488  20.344  0.00  0.00    -0.239 NA
ATOM      6  H   VAL A   1      13.718  -6.718  20.502  0.00  0.00    +0.142 HD
ENDBRANCH   1   5
BRANCH   1   7
ATOM      7  C   VAL A   1      15.990  -6.848  22.150  0.00  0.00    +0.224 C 
ATOM      8  O   VAL A   1      17.121  -6.701  22.608  0.00  0.00    -0.287 OA
ENDBRANCH   1   7
TORSDOF 3
REMARK  Name = ../refined-set-2016/1n4k/1n4k_pocket.pdb
REMARK  130 active torsions:
REMARK  status: ('A' for Active; 'I' for Inactive)
REMARK    1  A    between atoms: _1  and  _3
REMARK    2  A    between atoms: _3  and  _4
REMARK    3  A    between atoms: _3  and  _6
REMARK    4  A    between atoms: _6  and  _7
REMARK    5  A    between atoms: _7  and  _8
REMARK    6  A    between atoms: _8  and  _9
REMARK    7  A    between atoms: _18  and  _20
REMARK    8  A    between atoms: _20  and  _21
REMARK    9  A    between atoms: _20  and  _23
REMARK   10  A    between atoms: _23  and  _24
REMARK   11  A    between atoms: _27  and  _29
REMARK   12  A    between atoms: _29  and  _30
REMARK   13  A    between atoms: _29  and  _32
REMARK   14  A    between atoms: _32  and  _33
REMARK   15  A    between atoms: _36  and  _38
REMARK   16  A    between atoms: _38  and  _39
REMARK   17  A    between atoms: _41  and  _43
REMARK   18  A    between atoms: _43  and  _44
REMARK   19  A    between atoms: _43  and  _46
REMARK   20  A    between atoms: _46  and  _47
REMARK   21  A    between atoms: _47  and  _48
REMARK   22  A    between atoms: _48  and  _49
REMARK   23  A    between atoms: _58  and  _60
REMARK   24  A    between atoms: _60  and  _61
REMARK   25  A    between atoms: _60  and  _63
REMARK   26  A    between atoms: _63  and  _64
REMARK   27  A    between atoms: _64  and  _65
REMARK   28  A    between atoms: _70  and  _72
REMARK   29  A    between atoms: _72  and  _73
REMARK   30  A    between atoms: _72  and  _75
REMARK   31  A    between atoms: _75  and  _76
REMARK   32  A    between atoms: _78  and  _80
REMARK   33  A    between atoms: _80  and  _81
REMARK   34  A    between atoms: _84  and  _86
REMARK   35  A    between atoms: _86  and  _87
REMARK   36  A    between atoms: _86  and  _89
REMARK   37  A    between atoms: _89  and  _90
REMARK   38  A    between atoms: _92  and  _94
REMARK   39  A    between atoms: _94  and  _95
REMARK   40  A    between atoms: _98  and  _100
REMARK   41  A    between atoms: _100  and  _101
REMARK   42  A    between atoms: _100  and  _103
REMARK   43  A    between atoms: _103  and  _104
REMARK   44  A    between atoms: _107  and  _109
REMARK   45  A    between atoms: _109  and  _110
REMARK   46  A    between atoms: _109  and  _112
REMARK   47  A    between atoms: _112  and  _113
REMARK   48  A    between atoms: _115  and  _117
REMARK   49  A    between atoms: _117  and  _118
REMARK   50  A    between atoms: _117  and  _120
REMARK   51  A    between atoms: _120  and  _121
REMARK   52  A    between atoms: _123  and  _125
REMARK   53  A    between atoms: _125  and  _126
REMARK   54  A    between atoms: _125  and  _128
REMARK   55  A    between atoms: _128  and  _129
REMARK   56  A    between atoms: _129  and  _130
REMARK   57  A    between atoms: _130  and  _131
REMARK   58  A    between atoms: _131  and  _132
REMARK   59  A    between atoms: _136  and  _138
REMARK   60  A    between atoms: _138  and  _139
REMARK   61  A    between atoms: _138  and  _141
REMARK   62  A    between atoms: _144  and  _146
REMARK   63  A    between atoms: _146  and  _147
REMARK   64  A    between atoms: _146  and  _149
REMARK   65  A    between atoms: _149  and  _150
REMARK   66  A    between atoms: _150  and  _151
REMARK   67  A    between atoms: _151  and  _152
REMARK   68  A    between atoms: _161  and  _163
REMARK   69  A    between atoms: _163  and  _164
REMARK   70  A    between atoms: _163  and  _166
REMARK   71  A    between atoms: _166  and  _167
REMARK   72  A    between atoms: _167  and  _168
REMARK   73  A    between atoms: _171  and  _173
REMARK   74  A    between atoms: _173  and  _174
REMARK   75  A    between atoms: _173  and  _176
REMARK   76  A    between atoms: _176  and  _177
REMARK   77  A    between atoms: _177  and  _178
REMARK   78  A    between atoms: _183  and  _185
REMARK   79  A    between atoms: _185  and  _186
REMARK   80  A    between atoms: _185  and  _188
REMARK   81  A    between atoms: _188  and  _189
REMARK   82  A    between atoms: _189  and  _190
REMARK   83  A    between atoms: _190  and  _191
REMARK   84  A    between atoms: _191  and  _192
REMARK   85  A    between atoms: _196  and  _198
REMARK   86  A    between atoms: _198  and  _199
REMARK   87  A    between atoms: _198  and  _201
REMARK   88  A    between atoms: _201  and  _202
REMARK   89  A    between atoms: _205  and  _207
REMARK   90  A    between atoms: _207  and  _208
REMARK   91  A    between atoms: _207  and  _210
REMARK   92  A    between atoms: _210  and  _211
REMARK   93  A    between atoms: _211  and  _212
REMARK   94  A    between atoms: _212  and  _213
REMARK   95  A    between atoms: _222  and  _224
REMARK   96  A    between atoms: _224  and  _225
REMARK   97  A    between atoms: _224  and  _227
REMARK   98  A    between atoms: _227  and  _228
REMARK   99  A    between atoms: _228  and  _229
REMARK  100  A    between atoms: _232  and  _234
REMARK  101  A    between atoms: _234  and  _235
REMARK  102  A    between atoms: _234  and  _237
REMARK  103  A    between atoms: _237  and  _238
REMARK  104  A    between atoms: _241  and  _243
REMARK  105  A    between atoms: _243  and  _244
REMARK  106  A    between atoms: _243  and  _246
REMARK  107  A    between atoms: _246  and  _247
REMARK  108  A    between atoms: _252  and  _253
REMARK  109  A    between atoms: _255  and  _257
REMARK  110  A    between atoms: _257  and  _258
REMARK  111  A    between atoms: _257  and  _260
REMARK  112  A    between atoms: _260  and  _261
REMARK  113  A    between atoms: _261  and  _262
REMARK  114  A    between atoms: _262  and  _263
REMARK  115  A    between atoms: _272  and  _274
REMARK  116  A    between atoms: _274  and  _275
REMARK  117  A    between atoms: _274  and  _277
REMARK  118  A    between atoms: _277  and  _278
REMARK  119  A    between atoms: _278  and  _279
REMARK  120  A    between atoms: _279  and  _280
REMARK  121  A    between atoms: _280  and  _281
REMARK  122  A    between atoms: _285  and  _287
REMARK  123  A    between atoms: _287  and  _288
REMARK  124  A    between atoms: _287  and  _290
REMARK  125  A    between atoms: _290  and  _291
REMARK  126  A    between atoms: _296  and  _298
REMARK  127  A    between atoms: _298  and  _299
REMARK  128  A    between atoms: _298  and  _301
REMARK  129  A    between atoms: _301  and  _302
REMARK  130  A    between atoms: _302  and  _303
REMARK                            x       y       z     vdW  Elec       q    Type
REMARK                         _______ _______ _______ _____ _____    ______ ____
ROOT
ATOM      1  CA  ARG A   1      28.584   7.591  11.583  0.00  0.00    +0.145 C 
ENDROOT
BRANCH   1   2
ATOM      2  C   ARG A   1      28.070   7.569  13.019  0.00  0.00    +0.238 C 
ATOM      3  N   GLU A   2      28.974   7.552  13.994  0.00  0.00    -0.298 N 
ATOM      4  H   GLU A   2      29.988   7.567  13.761  0.00  0.00    +0.150 HD
ATOM      5  O   ARG A   1      26.853   7.560  13.243  0.00  0.00    -0.274 OA
BRANCH   3   6
ATOM      6  CA  GLU A   2      28.550   7.512  15.386  0.00  0.00    +0.137 C 
BRANCH   6   7
ATOM      7  C   GLU A   2      27.657   8.705  15.722  0.00  0.00    +0.227 C 
ATOM      8  O   GLU A   2      26.715   8.580  16.500  0.00  0.00    -0.286 OA
ENDBRANCH   6   7
BRANCH   6   9
ATOM      9  CB  GLU A   2      29.761   7.483  16.327  0.00  0.00    +0.039 C 
BRANCH   9  10
ATOM     10  CG  GLU A   2      30.799   6.420  15.974  0.00  0.00    +0.116 C 
BRANCH  10  11
ATOM     11  CD  GLU A   2      30.185   5.061  15.664  0.00  0.00    +0.365 C 
ATOM     12  OE2 GLU A   2      29.452   4.522  16.524  0.00  0.00    -0.246 OA
ATOM     13  OE1 GLU A   2      30.440   4.531  14.556  0.00  0.00    -0.246 OA
ENDBRANCH  10  11
ENDBRANCH   9  10
ENDBRANCH   6   9
ENDBRANCH   3   6
ENDBRANCH   1   2
BRANCH   1  14
ATOM     14  N   ARG A   1      29.625   8.565  11.287  0.00  0.00    -0.238 NA
ATOM     15  H   ARG A   1      30.512   8.246  10.848  0.00  0.00    +0.142 HD
ENDBRANCH   1  14
BRANCH   1  16
ATOM     16  CB  ARG A   1      29.043   6.189  11.165  0.00  0.00    +0.030 C 
BRANCH  16  17
ATOM     17  CG  ARG A   1      28.025   5.077  11.450  0.00  0.00    +0.045 C 
BRANCH  17  18
ATOM     18  CD  ARG A   1      26.700   5.282  10.702  0.00  0.00    +0.174 C 
BRANCH  18  19
ATOM     19  NE  ARG A   1      26.801   4.966   9.281  0.00  0.00    -0.265 N 
ATOM     20  CZ  ARG A   1      26.750   3.737   8.779  0.00  0.00    +0.342 C 
ATOM     21  NH2 ARG A   1      26.591   2.694   9.582  0.00  0.00    -0.292 N 
ATOM     22 HH21 ARG A   1      26.506   2.836  10.609  0.00  0.00    +0.255 HD
ATOM     23 HH22 ARG A   1      26.552   1.733   9.185  0.00  0.00    +0.255 HD
ATOM     24  NH1 ARG A   1      26.867   3.548   7.469  0.00  0.00    -0.292 N 
ATOM     25 HH11 ARG A   1      26.827   2.586   7.077  0.00  0.00    +0.255 HD
ATOM     26 HH12 ARG A   1      26.999   4.362   6.836  0.00  0.00    +0.255 HD
ATOM     27  HE  ARG A   1      26.921   5.757   8.616  0.00  0.00    +0.259 HD
ENDBRANCH  18  19
ENDBRANCH  17  18
ENDBRANCH  16  17
ENDBRANCH   1  16
TORSDOF 11
REMARK  Name = ../refined-set-2016/1n4k/1n4k_pocket.pdb
REMARK  130 active torsions:
REMARK  status: ('A' for Active; 'I' for Inactive)
REMARK    1  A    between atoms: _1  and  _3
REMARK    2  A    between atoms: _3  and  _4
REMARK    3  A    between atoms: _3  and  _6
REMARK    4  A    between atoms: _6  and  _7
REMARK    5  A    between atoms: _7  and  _8
REMARK    6  A    between atoms: _8  and  _9
REMARK    7  A    between atoms: _18  and  _20
REMARK    8  A    between atoms: _20  and  _21
REMARK    9  A    between atoms: _20  and  _23
REMARK   10  A    between atoms: _23  and  _24
REMARK   11  A    between atoms: _27  and  _29
REMARK   12  A    between atoms: _29  and  _30
REMARK   13  A    between atoms: _29  and  _32
REMARK   14  A    between atoms: _32  and  _33
REMARK   15  A    between atoms: _36  and  _38
REMARK   16  A    between atoms: _38  and  _39
REMARK   17  A    between atoms: _41  and  _43
REMARK   18  A    between atoms: _43  and  _44
REMARK   19  A    between atoms: _43  and  _46
REMARK   20  A    between atoms: _46  and  _47
REMARK   21  A    between atoms: _47  and  _48
REMARK   22  A    between atoms: _48  and  _49
REMARK   23  A    between atoms: _58  and  _60
REMARK   24  A    between atoms: _60  and  _61
REMARK   25  A    between atoms: _60  and  _63
REMARK   26  A    between atoms: _63  and  _64
REMARK   27  A    between atoms: _64  and  _65
REMARK   28  A    between atoms: _70  and  _72
REMARK   29  A    between atoms: _72  and  _73
REMARK   30  A    between atoms: _72  and  _75
REMARK   31  A    between atoms: _75  and  _76
REMARK   32  A    between atoms: _78  and  _80
REMARK   33  A    between atoms: _80  and  _81
REMARK   34  A    between atoms: _84  and  _86
REMARK   35  A    between atoms: _86  and  _87
REMARK   36  A    between atoms: _86  and  _89
REMARK   37  A    between atoms: _89  and  _90
REMARK   38  A    between atoms: _92  and  _94
REMARK   39  A    between atoms: _94  and  _95
REMARK   40  A    between atoms: _98  and  _100
REMARK   41  A    between atoms: _100  and  _101
REMARK   42  A    between atoms: _100  and  _103
REMARK   43  A    between atoms: _103  and  _104
REMARK   44  A    between atoms: _107  and  _109
REMARK   45  A    between atoms: _109  and  _110
REMARK   46  A    between atoms: _109  and  _112
REMARK   47  A    between atoms: _112  and  _113
REMARK   48  A    between atoms: _115  and  _117
REMARK   49  A    between atoms: _117  and  _118
REMARK   50  A    between atoms: _117  and  _120
REMARK   51  A    between atoms: _120  and  _121
REMARK   52  A    between atoms: _123  and  _125
REMARK   53  A    between atoms: _125  and  _126
REMARK   54  A    between atoms: _125  and  _128
REMARK   55  A    between atoms: _128  and  _129
REMARK   56  A    between atoms: _129  and  _130
REMARK   57  A    between atoms: _130  and  _131
REMARK   58  A    between atoms: _131  and  _132
REMARK   59  A    between atoms: _136  and  _138
REMARK   60  A    between atoms: _138  and  _139
REMARK   61  A    between atoms: _138  and  _141
REMARK   62  A    between atoms: _144  and  _146
REMARK   63  A    between atoms: _146  and  _147
REMARK   64  A    between atoms: _146  and  _149
REMARK   65  A    between atoms: _149  and  _150
REMARK   66  A    between atoms: _150  and  _151
REMARK   67  A    between atoms: _151  and  _152
REMARK   68  A    between atoms: _161  and  _163
REMARK   69  A    between atoms: _163  and  _164
REMARK   70  A    between atoms: _163  and  _166
REMARK   71  A    between atoms: _166  and  _167
REMARK   72  A    between atoms: _167  and  _168
REMARK   73  A    between atoms: _171  and  _173
REMARK   74  A    between atoms: _173  and  _174
REMARK   75  A    between atoms: _173  and  _176
REMARK   76  A    between atoms: _176  and  _177
REMARK   77  A    between atoms: _177  and  _178
REMARK   78  A    between atoms: _183  and  _185
REMARK   79  A    between atoms: _185  and  _186
REMARK   80  A    between atoms: _185  and  _188
REMARK   81  A    between atoms: _188  and  _189
REMARK   82  A    between atoms: _189  and  _190
REMARK   83  A    between atoms: _190  and  _191
REMARK   84  A    between atoms: _191  and  _192
REMARK   85  A    between atoms: _196  and  _198
REMARK   86  A    between atoms: _198  and  _199
REMARK   87  A    between atoms: _198  and  _201
REMARK   88  A    between atoms: _201  and  _202
REMARK   89  A    between atoms: _205  and  _207
REMARK   90  A    between atoms: _207  and  _208
REMARK   91  A    between atoms: _207  and  _210
REMARK   92  A    between atoms: _210  and  _211
REMARK   93  A    between atoms: _211  and  _212
REMARK   94  A    between atoms: _212  and  _213
REMARK   95  A    between atoms: _222  and  _224
REMARK   96  A    between atoms: _224  and  _225
REMARK   97  A    between atoms: _224  and  _227
REMARK   98  A    between atoms: _227  and  _228
REMARK   99  A    between atoms: _228  and  _229
REMARK  100  A    between atoms: _232  and  _234
REMARK  101  A    between atoms: _234  and  _235
REMARK  102  A    between atoms: _234  and  _237
REMARK  103  A    between atoms: _237  and  _238
REMARK  104  A    between atoms: _241  and  _243
REMARK  105  A    between atoms: _243  and  _244
REMARK  106  A    between atoms: _243  and  _246
REMARK  107  A    between atoms: _246  and  _247
REMARK  108  A    between atoms: _252  and  _253
REMARK  109  A    between atoms: _255  and  _257
REMARK  110  A    between atoms: _257  and  _258
REMARK  111  A    between atoms: _257  and  _260
REMARK  112  A    between atoms: _260  and  _261
REMARK  113  A    between atoms: _261  and  _262
REMARK  114  A    between atoms: _262  and  _263
REMARK  115  A    between atoms: _272  and  _274
REMARK  116  A    between atoms: _274  and  _275
REMARK  117  A    between atoms: _274  and  _277
REMARK  118  A    between atoms: _277  and  _278
REMARK  119  A    between atoms: _278  and  _279
REMARK  120  A    between atoms: _279  and  _280
REMARK  121  A    between atoms: _280  and  _281
REMARK  122  A    between atoms: _285  and  _287
REMARK  123  A    between atoms: _287  and  _288
REMARK  124  A    between atoms: _287  and  _290
REMARK  125  A    between atoms: _290  and  _291
REMARK  126  A    between atoms: _296  and  _298
REMARK  127  A    between atoms: _298  and  _299
REMARK  128  A    between atoms: _298  and  _301
REMARK  129  A    between atoms: _301  and  _302
REMARK  130  A    between atoms: _302  and  _303
REMARK                            x       y       z     vdW  Elec       q    Type
REMARK                         _______ _______ _______ _____ _____    ______ ____
ROOT
ATOM      1  CA  LYS A   2      23.473   7.426  14.980  0.00  0.00    +0.149 C 
ENDROOT
BRANCH   1   3
ATOM      2  C   GLN A   1      23.616   9.395  13.572  0.00  0.00    +0.238 C 
ATOM      3  N   LYS A   2      24.213   8.362  14.156  0.00  0.00    -0.297 N 
ATOM      4  H   LYS A   2      25.234   8.221  14.019  0.00  0.00    +0.150 HD
ATOM      5  O   GLN A   1      22.408   9.624  13.684  0.00  0.00    -0.274 OA
BRANCH   2   6
ATOM      6  CA  GLN A   1      24.529  10.281  12.728  0.00  0.00    +0.145 C 
BRANCH   6   7
ATOM      7  N   GLN A   1      25.781  10.431  13.466  0.00  0.00    -0.238 NA
ATOM      8  H   GLN A   1      26.673  10.110  13.039  0.00  0.00    +0.142 HD
ENDBRANCH   6   7
BRANCH   6   9
ATOM      9  CB  GLN A   1      24.762   9.580  11.391  0.00  0.00    +0.036 C 
BRANCH   9  10
ATOM     10  CG  GLN A   1      25.663  10.306  10.415  0.00  0.00    +0.087 C 
BRANCH  10  11
ATOM     11  CD  GLN A   1      25.753   9.580   9.087  0.00  0.00    +0.219 C 
ATOM     12  NE2 GLN A   1      26.382   8.409   9.103  0.00  0.00    -0.329 N 
ATOM     13 HE21 GLN A   1      26.790   8.050   9.990  0.00  0.00    +0.145 HD
ATOM     14 HE22 GLN A   1      26.466   7.852   8.229  0.00  0.00    +0.145 HD
ATOM     15  OE1 GLN A   1      25.247  10.056   8.054  0.00  0.00    -0.275 OA
ENDBRANCH  10  11
ENDBRANCH   9  10
ENDBRANCH   6   9
ENDBRANCH   2   6
ENDBRANCH   1   3
BRANCH   1  16
ATOM     16  C   LYS A   2      22.936   8.139  16.214  0.00  0.00    +0.241 C 
ATOM     17  N   LEU A   3      23.768   8.997  16.795  0.00  0.00    -0.298 N 
ATOM     18  H   LEU A   3      24.721   9.122  16.397  0.00  0.00    +0.150 HD
ATOM     19  O   LYS A   2      21.791   7.919  16.625  0.00  0.00    -0.273 OA
BRANCH  17  20
ATOM     20  CA  LEU A   3      23.387   9.769  17.974  0.00  0.00    +0.137 C 
BRANCH  20  21
ATOM     21  C   LEU A   3      22.175  10.672  17.680  0.00  0.00    +0.227 C 
ATOM     22  O   LEU A   3      21.296  10.839  18.532  0.00  0.00    -0.286 OA
ENDBRANCH  20  21
BRANCH  20  23
ATOM     23  CB  LEU A   3      24.575  10.618  18.431  0.00  0.00    +0.028 C 
BRANCH  23  24
ATOM     24  CG  LEU A   3      24.502  11.351  19.769  0.00  0.00    +0.002 C 
ATOM     25  CD2 LEU A   3      24.326  10.363  20.910  0.00  0.00    +0.000 C 
ATOM     26  CD1 LEU A   3      25.789  12.142  19.961  0.00  0.00    +0.000 C 
ENDBRANCH  23  24
ENDBRANCH  20  23
ENDBRANCH  17  20
ENDBRANCH   1  16
BRANCH   1  27
ATOM     27  CB  LYS A   2      24.380   6.265  15.386  0.00  0.00    +0.029 C 
BRANCH  27  28
ATOM     28  CG  LYS A   2      23.699   5.205  16.227  0.00  0.00    +0.000 C 
BRANCH  28  29
ATOM     29  CD  LYS A   2      24.592   3.981  16.361  0.00  0.00    -0.024 C 
BRANCH  29  30
ATOM     30  CE  LYS A   2      23.963   2.932  17.261  0.00  0.00    -0.086 C 
BRANCH  30  31
ATOM     31  NZ  LYS A   2      24.841   1.727  17.383  0.00  0.00    +0.380 N 
ATOM     32  HZ1 LYS A   2      24.385   1.028  18.004  0.00  0.00    -0.089 HD
ATOM     33  HZ2 LYS A   2      25.757   2.007  17.788  0.00  0.00    -0.089 HD
ATOM     34  HZ3 LYS A   2      24.990   1.311  16.441  0.00  0.00    -0.089 HD
ENDBRANCH  30  31
ENDBRANCH  29  30
ENDBRANCH  28  29
ENDBRANCH  27  28
ENDBRANCH   1  27
TORSDOF 16
REMARK  Name = ../refined-set-2016/1n4k/1n4k_pocket.pdb
REMARK  130 active torsions:
REMARK  status: ('A' for Active; 'I' for Inactive)
REMARK    1  A    between atoms: _1  and  _3
REMARK    2  A    between atoms: _3  and  _4
REMARK    3  A    between atoms: _3  and  _6
REMARK    4  A    between atoms: _6  and  _7
REMARK    5  A    between atoms: _7  and  _8
REMARK    6  A    between atoms: _8  and  _9
REMARK    7  A    between atoms: _18  and  _20
REMARK    8  A    between atoms: _20  and  _21
REMARK    9  A    between atoms: _20  and  _23
REMARK   10  A    between atoms: _23  and  _24
REMARK   11  A    between atoms: _27  and  _29
REMARK   12  A    between atoms: _29  and  _30
REMARK   13  A    between atoms: _29  and  _32
REMARK   14  A    between atoms: _32  and  _33
REMARK   15  A    between atoms: _36  and  _38
REMARK   16  A    between atoms: _38  and  _39
REMARK   17  A    between atoms: _41  and  _43
REMARK   18  A    between atoms: _43  and  _44
REMARK   19  A    between atoms: _43  and  _46
REMARK   20  A    between atoms: _46  and  _47
REMARK   21  A    between atoms: _47  and  _48
REMARK   22  A    between atoms: _48  and  _49
REMARK   23  A    between atoms: _58  and  _60
REMARK   24  A    between atoms: _60  and  _61
REMARK   25  A    between atoms: _60  and  _63
REMARK   26  A    between atoms: _63  and  _64
REMARK   27  A    between atoms: _64  and  _65
REMARK   28  A    between atoms: _70  and  _72
REMARK   29  A    between atoms: _72  and  _73
REMARK   30  A    between atoms: _72  and  _75
REMARK   31  A    between atoms: _75  and  _76
REMARK   32  A    between atoms: _78  and  _80
REMARK   33  A    between atoms: _80  and  _81
REMARK   34  A    between atoms: _84  and  _86
REMARK   35  A    between atoms: _86  and  _87
REMARK   36  A    between atoms: _86  and  _89
REMARK   37  A    between atoms: _89  and  _90
REMARK   38  A    between atoms: _92  and  _94
REMARK   39  A    between atoms: _94  and  _95
REMARK   40  A    between atoms: _98  and  _100
REMARK   41  A    between atoms: _100  and  _101
REMARK   42  A    between atoms: _100  and  _103
REMARK   43  A    between atoms: _103  and  _104
REMARK   44  A    between atoms: _107  and  _109
REMARK   45  A    between atoms: _109  and  _110
REMARK   46  A    between atoms: _109  and  _112
REMARK   47  A    between atoms: _112  and  _113
REMARK   48  A    between atoms: _115  and  _117
REMARK   49  A    between atoms: _117  and  _118
REMARK   50  A    between atoms: _117  and  _120
REMARK   51  A    between atoms: _120  and  _121
REMARK   52  A    between atoms: _123  and  _125
REMARK   53  A    between atoms: _125  and  _126
REMARK   54  A    between atoms: _125  and  _128
REMARK   55  A    between atoms: _128  and  _129
REMARK   56  A    between atoms: _129  and  _130
REMARK   57  A    between atoms: _130  and  _131
REMARK   58  A    between atoms: _131  and  _132
REMARK   59  A    between atoms: _136  and  _138
REMARK   60  A    between atoms: _138  and  _139
REMARK   61  A    between atoms: _138  and  _141
REMARK   62  A    between atoms: _144  and  _146
REMARK   63  A    between atoms: _146  and  _147
REMARK   64  A    between atoms: _146  and  _149
REMARK   65  A    between atoms: _149  and  _150
REMARK   66  A    between atoms: _150  and  _151
REMARK   67  A    between atoms: _151  and  _152
REMARK   68  A    between atoms: _161  and  _163
REMARK   69  A    between atoms: _163  and  _164
REMARK   70  A    between atoms: _163  and  _166
REMARK   71  A    between atoms: _166  and  _167
REMARK   72  A    between atoms: _167  and  _168
REMARK   73  A    between atoms: _171  and  _173
REMARK   74  A    between atoms: _173  and  _174
REMARK   75  A    between atoms: _173  and  _176
REMARK   76  A    between atoms: _176  and  _177
REMARK   77  A    between atoms: _177  and  _178
REMARK   78  A    between atoms: _183  and  _185
REMARK   79  A    between atoms: _185  and  _186
REMARK   80  A    between atoms: _185  and  _188
REMARK   81  A    between atoms: _188  and  _189
REMARK   82  A    between atoms: _189  and  _190
REMARK   83  A    between atoms: _190  and  _191
REMARK   84  A    between atoms: _191  and  _192
REMARK   85  A    between atoms: _196  and  _198
REMARK   86  A    between atoms: _198  and  _199
REMARK   87  A    between atoms: _198  and  _201
REMARK   88  A    between atoms: _201  and  _202
REMARK   89  A    between atoms: _205  and  _207
REMARK   90  A    between atoms: _207  and  _208
REMARK   91  A    between atoms: _207  and  _210
REMARK   92  A    between atoms: _210  and  _211
REMARK   93  A    between atoms: _211  and  _212
REMARK   94  A    between atoms: _212  and  _213
REMARK   95  A    between atoms: _222  and  _224
REMARK   96  A    between atoms: _224  and  _225
REMARK   97  A    between atoms: _224  and  _227
REMARK   98  A    between atoms: _227  and  _228
REMARK   99  A    between atoms: _228  and  _229
REMARK  100  A    between atoms: _232  and  _234
REMARK  101  A    between atoms: _234  and  _235
REMARK  102  A    between atoms: _234  and  _237
REMARK  103  A    between atoms: _237  and  _238
REMARK  104  A    between atoms: _241  and  _243
REMARK  105  A    between atoms: _243  and  _244
REMARK  106  A    between atoms: _243  and  _246
REMARK  107  A    between atoms: _246  and  _247
REMARK  108  A    between atoms: _252  and  _253
REMARK  109  A    between atoms: _255  and  _257
REMARK  110  A    between atoms: _257  and  _258
REMARK  111  A    between atoms: _257  and  _260
REMARK  112  A    between atoms: _260  and  _261
REMARK  113  A    between atoms: _261  and  _262
REMARK  114  A    between atoms: _262  and  _263
REMARK  115  A    between atoms: _272  and  _274
REMARK  116  A    between atoms: _274  and  _275
REMARK  117  A    between atoms: _274  and  _277
REMARK  118  A    between atoms: _277  and  _278
REMARK  119  A    between atoms: _278  and  _279
REMARK  120  A    between atoms: _279  and  _280
REMARK  121  A    between atoms: _280  and  _281
REMARK  122  A    between atoms: _285  and  _287
REMARK  123  A    between atoms: _287  and  _288
REMARK  124  A    between atoms: _287  and  _290
REMARK  125  A    between atoms: _290  and  _291
REMARK  126  A    between atoms: _296  and  _298
REMARK  127  A    between atoms: _298  and  _299
REMARK  128  A    between atoms: _298  and  _301
REMARK  129  A    between atoms: _301  and  _302
REMARK  130  A    between atoms: _302  and  _303
REMARK                            x       y       z     vdW  Elec       q    Type
REMARK                         _______ _______ _______ _____ _____    ______ ____
ROOT
ATOM      1  CA  ARG A   1      18.478   9.332  15.774  0.00  0.00    +0.145 C 
ENDROOT
BRANCH   1   2
ATOM      2  C   ARG A   1      18.152   8.886  17.187  0.00  0.00    +0.238 C 
ATOM      3  N   GLU A   2      19.128   8.269  17.845  0.00  0.00    -0.298 N 
ATOM      4  H   GLU A   2      20.052   8.147  17.385  0.00  0.00    +0.150 HD
ATOM      5  O   ARG A   1      17.043   9.103  17.676  0.00  0.00    -0.274 OA
BRANCH   3   6
ATOM      6  CA  GLU A   2      18.933   7.759  19.199  0.00  0.00    +0.137 C 
BRANCH   6   7
ATOM      7  C   GLU A   2      18.561   8.795  20.257  0.00  0.00    +0.227 C 
ATOM      8  O   GLU A   2      17.745   8.503  21.133  0.00  0.00    -0.286 OA
ENDBRANCH   6   7
BRANCH   6   9
ATOM      9  CB  GLU A   2      20.175   6.967  19.639  0.00  0.00    +0.039 C 
BRANCH   9  10
ATOM     10  CG  GLU A   2      20.544   5.885  18.627  0.00  0.00    +0.116 C 
BRANCH  10  11
ATOM     11  CD  GLU A   2      20.982   4.575  19.254  0.00  0.00    +0.365 C 
ATOM     12  OE2 GLU A   2      21.989   4.567  19.988  0.00  0.00    -0.246 OA
ATOM     13  OE1 GLU A   2      20.312   3.548  19.002  0.00  0.00    -0.246 OA
ENDBRANCH  10  11
ENDBRANCH   9  10
ENDBRANCH   6   9
ENDBRANCH   3   6
ENDBRANCH   1   2
BRANCH   1  14
ATOM     14  N   ARG A   1      19.695  10.135  15.748  0.00  0.00    -0.238 NA
ATOM     15  H   ARG A   1      20.579   9.706  15.408  0.00  0.00    +0.142 HD
ENDBRANCH   1  14
BRANCH   1  16
ATOM     16  CB  ARG A   1      18.624   8.095  14.883  0.00  0.00    +0.030 C 
BRANCH  16  17
ATOM     17  CG  ARG A   1      17.352   7.267  14.793  0.00  0.00    +0.045 C 
BRANCH  17  18
ATOM     18  CD  ARG A   1      17.576   5.918  14.102  0.00  0.00    +0.174 C 
BRANCH  18  19
ATOM     19  NE  ARG A   1      18.334   4.968  14.922  0.00  0.00    -0.265 N 
ATOM     20  HE  ARG A   1      17.880   4.598  15.781  0.00  0.00    +0.259 HD
ATOM     21  CZ  ARG A   1      19.565   4.548  14.640  0.00  0.00    +0.342 C 
ATOM     22  NH2 ARG A   1      20.171   3.670  15.432  0.00  0.00    -0.292 N 
ATOM     23 HH21 ARG A   1      19.683   3.308  16.276  0.00  0.00    +0.255 HD
ATOM     24 HH22 ARG A   1      21.133   3.345  15.208  0.00  0.00    +0.255 HD
ATOM     25  NH1 ARG A   1      20.188   4.997  13.558  0.00  0.00    -0.292 N 
ATOM     26 HH11 ARG A   1      21.150   4.669  13.338  0.00  0.00    +0.255 HD
ATOM     27 HH12 ARG A   1      19.714   5.677  12.930  0.00  0.00    +0.255 HD
ENDBRANCH  18  19
ENDBRANCH  17  18
ENDBRANCH  16  17
ENDBRANCH   1  16
TORSDOF 11
REMARK  Name = ../refined-set-2016/1n4k/1n4k_pocket.pdb
REMARK  130 active torsions:
REMARK  status: ('A' for Active; 'I' for Inactive)
REMARK    1  A    between atoms: _1  and  _3
REMARK    2  A    between atoms: _3  and  _4
REMARK    3  A    between atoms: _3  and  _6
REMARK    4  A    between atoms: _6  and  _7
REMARK    5  A    between atoms: _7  and  _8
REMARK    6  A    between atoms: _8  and  _9
REMARK    7  A    between atoms: _18  and  _20
REMARK    8  A    between atoms: _20  and  _21
REMARK    9  A    between atoms: _20  and  _23
REMARK   10  A    between atoms: _23  and  _24
REMARK   11  A    between atoms: _27  and  _29
REMARK   12  A    between atoms: _29  and  _30
REMARK   13  A    between atoms: _29  and  _32
REMARK   14  A    between atoms: _32  and  _33
REMARK   15  A    between atoms: _36  and  _38
REMARK   16  A    between atoms: _38  and  _39
REMARK   17  A    between atoms: _41  and  _43
REMARK   18  A    between atoms: _43  and  _44
REMARK   19  A    between atoms: _43  and  _46
REMARK   20  A    between atoms: _46  and  _47
REMARK   21  A    between atoms: _47  and  _48
REMARK   22  A    between atoms: _48  and  _49
REMARK   23  A    between atoms: _58  and  _60
REMARK   24  A    between atoms: _60  and  _61
REMARK   25  A    between atoms: _60  and  _63
REMARK   26  A    between atoms: _63  and  _64
REMARK   27  A    between atoms: _64  and  _65
REMARK   28  A    between atoms: _70  and  _72
REMARK   29  A    between atoms: _72  and  _73
REMARK   30  A    between atoms: _72  and  _75
REMARK   31  A    between atoms: _75  and  _76
REMARK   32  A    between atoms: _78  and  _80
REMARK   33  A    between atoms: _80  and  _81
REMARK   34  A    between atoms: _84  and  _86
REMARK   35  A    between atoms: _86  and  _87
REMARK   36  A    between atoms: _86  and  _89
REMARK   37  A    between atoms: _89  and  _90
REMARK   38  A    between atoms: _92  and  _94
REMARK   39  A    between atoms: _94  and  _95
REMARK   40  A    between atoms: _98  and  _100
REMARK   41  A    between atoms: _100  and  _101
REMARK   42  A    between atoms: _100  and  _103
REMARK   43  A    between atoms: _103  and  _104
REMARK   44  A    between atoms: _107  and  _109
REMARK   45  A    between atoms: _109  and  _110
REMARK   46  A    between atoms: _109  and  _112
REMARK   47  A    between atoms: _112  and  _113
REMARK   48  A    between atoms: _115  and  _117
REMARK   49  A    between atoms: _117  and  _118
REMARK   50  A    between atoms: _117  and  _120
REMARK   51  A    between atoms: _120  and  _121
REMARK   52  A    between atoms: _123  and  _125
REMARK   53  A    between atoms: _125  and  _126
REMARK   54  A    between atoms: _125  and  _128
REMARK   55  A    between atoms: _128  and  _129
REMARK   56  A    between atoms: _129  and  _130
REMARK   57  A    between atoms: _130  and  _131
REMARK   58  A    between atoms: _131  and  _132
REMARK   59  A    between atoms: _136  and  _138
REMARK   60  A    between atoms: _138  and  _139
REMARK   61  A    between atoms: _138  and  _141
REMARK   62  A    between atoms: _144  and  _146
REMARK   63  A    between atoms: _146  and  _147
REMARK   64  A    between atoms: _146  and  _149
REMARK   65  A    between atoms: _149  and  _150
REMARK   66  A    between atoms: _150  and  _151
REMARK   67  A    between atoms: _151  and  _152
REMARK   68  A    between atoms: _161  and  _163
REMARK   69  A    between atoms: _163  and  _164
REMARK   70  A    between atoms: _163  and  _166
REMARK   71  A    between atoms: _166  and  _167
REMARK   72  A    between atoms: _167  and  _168
REMARK   73  A    between atoms: _171  and  _173
REMARK   74  A    between atoms: _173  and  _174
REMARK   75  A    between atoms: _173  and  _176
REMARK   76  A    between atoms: _176  and  _177
REMARK   77  A    between atoms: _177  and  _178
REMARK   78  A    between atoms: _183  and  _185
REMARK   79  A    between atoms: _185  and  _186
REMARK   80  A    between atoms: _185  and  _188
REMARK   81  A    between atoms: _188  and  _189
REMARK   82  A    between atoms: _189  and  _190
REMARK   83  A    between atoms: _190  and  _191
REMARK   84  A    between atoms: _191  and  _192
REMARK   85  A    between atoms: _196  and  _198
REMARK   86  A    between atoms: _198  and  _199
REMARK   87  A    between atoms: _198  and  _201
REMARK   88  A    between atoms: _201  and  _202
REMARK   89  A    between atoms: _205  and  _207
REMARK   90  A    between atoms: _207  and  _208
REMARK   91  A    between atoms: _207  and  _210
REMARK   92  A    between atoms: _210  and  _211
REMARK   93  A    between atoms: _211  and  _212
REMARK   94  A    between atoms: _212  and  _213
REMARK   95  A    between atoms: _222  and  _224
REMARK   96  A    between atoms: _224  and  _225
REMARK   97  A    between atoms: _224  and  _227
REMARK   98  A    between atoms: _227  and  _228
REMARK   99  A    between atoms: _228  and  _229
REMARK  100  A    between atoms: _232  and  _234
REMARK  101  A    between atoms: _234  and  _235
REMARK  102  A    between atoms: _234  and  _237
REMARK  103  A    between atoms: _237  and  _238
REMARK  104  A    between atoms: _241  and  _243
REMARK  105  A    between atoms: _243  and  _244
REMARK  106  A    between atoms: _243  and  _246
REMARK  107  A    between atoms: _246  and  _247
REMARK  108  A    between atoms: _252  and  _253
REMARK  109  A    between atoms: _255  and  _257
REMARK  110  A    between atoms: _257  and  _258
REMARK  111  A    between atoms: _257  and  _260
REMARK  112  A    between atoms: _260  and  _261
REMARK  113  A    between atoms: _261  and  _262
REMARK  114  A    between atoms: _262  and  _263
REMARK  115  A    between atoms: _272  and  _274
REMARK  116  A    between atoms: _274  and  _275
REMARK  117  A    between atoms: _274  and  _277
REMARK  118  A    between atoms: _277  and  _278
REMARK  119  A    between atoms: _278  and  _279
REMARK  120  A    between atoms: _279  and  _280
REMARK  121  A    between atoms: _280  and  _281
REMARK  122  A    between atoms: _285  and  _287
REMARK  123  A    between atoms: _287  and  _288
REMARK  124  A    between atoms: _287  and  _290
REMARK  125  A    between atoms: _290  and  _291
REMARK  126  A    between atoms: _296  and  _298
REMARK  127  A    between atoms: _298  and  _299
REMARK  128  A    between atoms: _298  and  _301
REMARK  129  A    between atoms: _301  and  _302
REMARK  130  A    between atoms: _302  and  _303
REMARK                            x       y       z     vdW  Elec       q    Type
REMARK                         _______ _______ _______ _____ _____    ______ ____
ROOT
ATOM      1  CA  ARG A   3      20.891   2.949   5.384  0.00  0.00    +0.149 C 
ENDROOT
BRANCH   1   4
ATOM      2  C   TYR A   2      22.222   4.870   6.111  0.00  0.00    +0.241 C 
ATOM      3  O   TYR A   2      21.219   5.555   6.357  0.00  0.00    -0.273 OA
ATOM      4  N   ARG A   3      22.160   3.618   5.666  0.00  0.00    -0.297 N 
ATOM      5  H   ARG A   3      23.046   3.096   5.513  0.00  0.00    +0.150 HD
BRANCH   2   6
ATOM      6  CA  TYR A   2      23.629   5.436   6.315  0.00  0.00    +0.153 C 
BRANCH   6   8
ATOM      7  C   ASP A   1      25.228   5.980   4.569  0.00  0.00    +0.239 C 
ATOM      8  N   TYR A   2      24.026   6.150   5.108  0.00  0.00    -0.297 N 
ATOM      9  H   TYR A   2      23.355   6.806   4.660  0.00  0.00    +0.150 HD
ATOM     10  O   ASP A   1      26.056   5.184   5.020  0.00  0.00    -0.274 OA
BRANCH   7  11
ATOM     11  CA  ASP A   1      25.546   6.813   3.335  0.00  0.00    +0.156 C 
BRANCH  11  12
ATOM     12  N   ASP A   1      24.899   8.130   3.363  0.00  0.00    -0.238 NA
ATOM     13  H   ASP A   1      24.305   8.401   2.554  0.00  0.00    +0.142 HD
ENDBRANCH  11  12
BRANCH  11  14
ATOM     14  CB  ASP A   1      27.065   6.963   3.234  0.00  0.00    +0.140 C 
BRANCH  14  15
ATOM     15  CG  ASP A   1      27.491   7.831   2.069  0.00  0.00    +0.367 C 
ATOM     16  OD2 ASP A   1      28.249   8.796   2.308  0.00  0.00    -0.246 OA
ATOM     17  OD1 ASP A   1      27.077   7.549   0.919  0.00  0.00    -0.246 OA
ENDBRANCH  14  15
ENDBRANCH  11  14
ENDBRANCH   7  11
ENDBRANCH   6   8
BRANCH   6  18
ATOM     18  CB  TYR A   2      23.666   6.420   7.496  0.00  0.00    +0.055 C 
BRANCH  18  19
ATOM     19  CG  TYR A   2      23.453   5.817   8.875  0.00  0.00    -0.020 A 
ATOM     20  CD2 TYR A   2      23.246   6.639   9.986  0.00  0.00    -0.001 A 
ATOM     21  CE2 TYR A   2      23.053   6.102  11.257  0.00  0.00    +0.036 A 
ATOM     22  CZ  TYR A   2      23.071   4.726  11.425  0.00  0.00    +0.134 A 
ATOM     23  CE1 TYR A   2      23.278   3.888  10.342  0.00  0.00    +0.036 A 
ATOM     24  CD1 TYR A   2      23.466   4.437   9.073  0.00  0.00    -0.001 A 
BRANCH  22  25
ATOM     25  OH  TYR A   2      22.876   4.196  12.673  0.00  0.00    -0.506 OA
ATOM     26  HH  TYR A   2      23.669   3.662  12.931  0.00  0.00    +0.292 HD
ENDBRANCH  22  25
ENDBRANCH  18  19
ENDBRANCH   6  18
ENDBRANCH   2   6
ENDBRANCH   1   4
BRANCH   1  27
ATOM     27  C   ARG A   3      19.851   3.036   6.494  0.00  0.00    +0.241 C 
ATOM     28  N   LYS A   4      20.244   2.712   7.722  0.00  0.00    -0.297 N 
ATOM     29  H   LYS A   4      21.228   2.421   7.891  0.00  0.00    +0.150 HD
ATOM     30  O   ARG A   3      18.700   3.378   6.237  0.00  0.00    -0.273 OA
BRANCH  28  31
ATOM     31  CA  LYS A   4      19.304   2.762   8.831  0.00  0.00    +0.149 C 
BRANCH  31  32
ATOM     32  C   LYS A   4      18.658   4.144   8.976  0.00  0.00    +0.241 C 
ATOM     33  O   LYS A   4      17.446   4.245   9.158  0.00  0.00    -0.273 OA
ATOM     34  N   ASN A   5      19.443   5.214   8.882  0.00  0.00    -0.298 N 
ATOM     35  H   ASN A   5      20.464   5.107   8.713  0.00  0.00    +0.150 HD
BRANCH  34  36
ATOM     36  CA  ASN A   5      18.848   6.547   9.020  0.00  0.00    +0.146 C 
BRANCH  36  37
ATOM     37  C   ASN A   5      18.007   6.977   7.821  0.00  0.00    +0.227 C 
ATOM     38  O   ASN A   5      17.063   7.753   7.973  0.00  0.00    -0.286 OA
ENDBRANCH  36  37
BRANCH  36  39
ATOM     39  CB  ASN A   5      19.915   7.604   9.316  0.00  0.00    +0.112 C 
BRANCH  39  40
ATOM     40  CG  ASN A   5      20.137   7.798  10.810  0.00  0.00    +0.222 C 
ATOM     41  OD1 ASN A   5      19.614   7.041  11.626  0.00  0.00    -0.275 OA
ATOM     42  ND2 ASN A   5      20.919   8.806  11.169  0.00  0.00    -0.329 N 
ATOM     43 HD21 ASN A   5      21.111   8.982  12.176  0.00  0.00    +0.145 HD
ATOM     44 HD22 ASN A   5      21.340   9.421  10.444  0.00  0.00    +0.145 HD
ENDBRANCH  39  40
ENDBRANCH  36  39
ENDBRANCH  34  36
ENDBRANCH  31  32
BRANCH  31  45
ATOM     45  CB  LYS A   4      19.996   2.356  10.138  0.00  0.00    +0.029 C 
BRANCH  45  46
ATOM     46  CG  LYS A   4      19.030   2.037  11.271  0.00  0.00    +0.000 C 
BRANCH  46  47
ATOM     47  CD  LYS A   4      19.756   1.433  12.461  0.00  0.00    -0.024 C 
BRANCH  47  48
ATOM     48  CE  LYS A   4      18.789   1.133  13.598  0.00  0.00    -0.086 C 
BRANCH  48  49
ATOM     49  NZ  LYS A   4      17.675   0.248  13.139  0.00  0.00    +0.380 N 
ATOM     50  HZ1 LYS A   4      17.032   0.061  13.935  0.00  0.00    -0.089 HD
ATOM     51  HZ2 LYS A   4      18.068  -0.650  12.791  0.00  0.00    -0.089 HD
ATOM     52  HZ3 LYS A   4      17.152   0.719  12.373  0.00  0.00    -0.089 HD
ENDBRANCH  48  49
ENDBRANCH  47  48
ENDBRANCH  46  47
ENDBRANCH  45  46
ENDBRANCH  31  45
ENDBRANCH  28  31
ENDBRANCH   1  27
BRANCH   1  53
ATOM     53  CB  ARG A   3      21.123   1.475   5.047  0.00  0.00    +0.033 C 
BRANCH  53  54
ATOM     54  CG  ARG A   3      19.843   0.741   4.653  0.00  0.00    +0.045 C 
BRANCH  54  55
ATOM     55  CD  ARG A   3      19.985  -0.766   4.829  0.00  0.00    +0.174 C 
BRANCH  55  56
ATOM     56  NE  ARG A   3      20.257  -1.119   6.223  0.00  0.00    -0.265 N 
ATOM     57  CZ  ARG A   3      19.370  -1.039   7.212  0.00  0.00    +0.342 C 
ATOM     58  NH2 ARG A   3      19.730  -1.345   8.451  0.00  0.00    -0.292 N 
ATOM     59 HH21 ARG A   3      19.037  -1.283   9.224  0.00  0.00    +0.255 HD
ATOM     60 HH22 ARG A   3      20.705  -1.647   8.650  0.00  0.00    +0.255 HD
ATOM     61  NH1 ARG A   3      18.132  -0.626   6.972  0.00  0.00    -0.292 N 
ATOM     62 HH11 ARG A   3      17.444  -0.566   7.750  0.00  0.00    +0.255 HD
ATOM     63 HH12 ARG A   3      17.850  -0.362   6.006  0.00  0.00    +0.255 HD
ATOM     64  HE  ARG A   3      21.212  -1.457   6.458  0.00  0.00    +0.259 HD
ENDBRANCH  55  56
ENDBRANCH  54  55
ENDBRANCH  53  54
ENDBRANCH   1  53
TORSDOF 26
REMARK  Name = ../refined-set-2016/1n4k/1n4k_pocket.pdb
REMARK  130 active torsions:
REMARK  status: ('A' for Active; 'I' for Inactive)
REMARK    1  A    between atoms: _1  and  _3
REMARK    2  A    between atoms: _3  and  _4
REMARK    3  A    between atoms: _3  and  _6
REMARK    4  A    between atoms: _6  and  _7
REMARK    5  A    between atoms: _7  and  _8
REMARK    6  A    between atoms: _8  and  _9
REMARK    7  A    between atoms: _18  and  _20
REMARK    8  A    between atoms: _20  and  _21
REMARK    9  A    between atoms: _20  and  _23
REMARK   10  A    between atoms: _23  and  _24
REMARK   11  A    between atoms: _27  and  _29
REMARK   12  A    between atoms: _29  and  _30
REMARK   13  A    between atoms: _29  and  _32
REMARK   14  A    between atoms: _32  and  _33
REMARK   15  A    between atoms: _36  and  _38
REMARK   16  A    between atoms: _38  and  _39
REMARK   17  A    between atoms: _41  and  _43
REMARK   18  A    between atoms: _43  and  _44
REMARK   19  A    between atoms: _43  and  _46
REMARK   20  A    between atoms: _46  and  _47
REMARK   21  A    between atoms: _47  and  _48
REMARK   22  A    between atoms: _48  and  _49
REMARK   23  A    between atoms: _58  and  _60
REMARK   24  A    between atoms: _60  and  _61
REMARK   25  A    between atoms: _60  and  _63
REMARK   26  A    between atoms: _63  and  _64
REMARK   27  A    between atoms: _64  and  _65
REMARK   28  A    between atoms: _70  and  _72
REMARK   29  A    between atoms: _72  and  _73
REMARK   30  A    between atoms: _72  and  _75
REMARK   31  A    between atoms: _75  and  _76
REMARK   32  A    between atoms: _78  and  _80
REMARK   33  A    between atoms: _80  and  _81
REMARK   34  A    between atoms: _84  and  _86
REMARK   35  A    between atoms: _86  and  _87
REMARK   36  A    between atoms: _86  and  _89
REMARK   37  A    between atoms: _89  and  _90
REMARK   38  A    between atoms: _92  and  _94
REMARK   39  A    between atoms: _94  and  _95
REMARK   40  A    between atoms: _98  and  _100
REMARK   41  A    between atoms: _100  and  _101
REMARK   42  A    between atoms: _100  and  _103
REMARK   43  A    between atoms: _103  and  _104
REMARK   44  A    between atoms: _107  and  _109
REMARK   45  A    between atoms: _109  and  _110
REMARK   46  A    between atoms: _109  and  _112
REMARK   47  A    between atoms: _112  and  _113
REMARK   48  A    between atoms: _115  and  _117
REMARK   49  A    between atoms: _117  and  _118
REMARK   50  A    between atoms: _117  and  _120
REMARK   51  A    between atoms: _120  and  _121
REMARK   52  A    between atoms: _123  and  _125
REMARK   53  A    between atoms: _125  and  _126
REMARK   54  A    between atoms: _125  and  _128
REMARK   55  A    between atoms: _128  and  _129
REMARK   56  A    between atoms: _129  and  _130
REMARK   57  A    between atoms: _130  and  _131
REMARK   58  A    between atoms: _131  and  _132
REMARK   59  A    between atoms: _136  and  _138
REMARK   60  A    between atoms: _138  and  _139
REMARK   61  A    between atoms: _138  and  _141
REMARK   62  A    between atoms: _144  and  _146
REMARK   63  A    between atoms: _146  and  _147
REMARK   64  A    between atoms: _146  and  _149
REMARK   65  A    between atoms: _149  and  _150
REMARK   66  A    between atoms: _150  and  _151
REMARK   67  A    between atoms: _151  and  _152
REMARK   68  A    between atoms: _161  and  _163
REMARK   69  A    between atoms: _163  and  _164
REMARK   70  A    between atoms: _163  and  _166
REMARK   71  A    between atoms: _166  and  _167
REMARK   72  A    between atoms: _167  and  _168
REMARK   73  A    between atoms: _171  and  _173
REMARK   74  A    between atoms: _173  and  _174
REMARK   75  A    between atoms: _173  and  _176
REMARK   76  A    between atoms: _176  and  _177
REMARK   77  A    between atoms: _177  and  _178
REMARK   78  A    between atoms: _183  and  _185
REMARK   79  A    between atoms: _185  and  _186
REMARK   80  A    between atoms: _185  and  _188
REMARK   81  A    between atoms: _188  and  _189
REMARK   82  A    between atoms: _189  and  _190
REMARK   83  A    between atoms: _190  and  _191
REMARK   84  A    between atoms: _191  and  _192
REMARK   85  A    between atoms: _196  and  _198
REMARK   86  A    between atoms: _198  and  _199
REMARK   87  A    between atoms: _198  and  _201
REMARK   88  A    between atoms: _201  and  _202
REMARK   89  A    between atoms: _205  and  _207
REMARK   90  A    between atoms: _207  and  _208
REMARK   91  A    between atoms: _207  and  _210
REMARK   92  A    between atoms: _210  and  _211
REMARK   93  A    between atoms: _211  and  _212
REMARK   94  A    between atoms: _212  and  _213
REMARK   95  A    between atoms: _222  and  _224
REMARK   96  A    between atoms: _224  and  _225
REMARK   97  A    between atoms: _224  and  _227
REMARK   98  A    between atoms: _227  and  _228
REMARK   99  A    between atoms: _228  and  _229
REMARK  100  A    between atoms: _232  and  _234
REMARK  101  A    between atoms: _234  and  _235
REMARK  102  A    between atoms: _234  and  _237
REMARK  103  A    between atoms: _237  and  _238
REMARK  104  A    between atoms: _241  and  _243
REMARK  105  A    between atoms: _243  and  _244
REMARK  106  A    between atoms: _243  and  _246
REMARK  107  A    between atoms: _246  and  _247
REMARK  108  A    between atoms: _252  and  _253
REMARK  109  A    between atoms: _255  and  _257
REMARK  110  A    between atoms: _257  and  _258
REMARK  111  A    between atoms: _257  and  _260
REMARK  112  A    between atoms: _260  and  _261
REMARK  113  A    between atoms: _261  and  _262
REMARK  114  A    between atoms: _262  and  _263
REMARK  115  A    between atoms: _272  and  _274
REMARK  116  A    between atoms: _274  and  _275
REMARK  117  A    between atoms: _274  and  _277
REMARK  118  A    between atoms: _277  and  _278
REMARK  119  A    between atoms: _278  and  _279
REMARK  120  A    between atoms: _279  and  _280
REMARK  121  A    between atoms: _280  and  _281
REMARK  122  A    between atoms: _285  and  _287
REMARK  123  A    between atoms: _287  and  _288
REMARK  124  A    between atoms: _287  and  _290
REMARK  125  A    between atoms: _290  and  _291
REMARK  126  A    between atoms: _296  and  _298
REMARK  127  A    between atoms: _298  and  _299
REMARK  128  A    between atoms: _298  and  _301
REMARK  129  A    between atoms: _301  and  _302
REMARK  130  A    between atoms: _302  and  _303
REMARK                            x       y       z     vdW  Elec       q    Type
REMARK                         _______ _______ _______ _____ _____    ______ ____
ROOT
ATOM      1  CA  GLU A   1      14.726   4.416   6.255  0.00  0.00    +0.134 C 
ENDROOT
BRANCH   1   2
ATOM      2  N   GLU A   1      16.036   5.025   6.057  0.00  0.00    -0.239 NA
ATOM      3  H   GLU A   1      16.894   4.476   6.266  0.00  0.00    +0.142 HD
ENDBRANCH   1   2
BRANCH   1   4
ATOM      4  C   GLU A   1      13.974   5.103   7.383  0.00  0.00    +0.224 C 
ATOM      5  O   GLU A   1      12.767   5.336   7.285  0.00  0.00    -0.287 OA
ENDBRANCH   1   4
BRANCH   1   6
ATOM      6  CB  GLU A   1      14.877   2.924   6.558  0.00  0.00    +0.037 C 
BRANCH   6   7
ATOM      7  CG  GLU A   1      15.730   2.192   5.533  0.00  0.00    +0.116 C 
BRANCH   7   8
ATOM      8  CD  GLU A   1      15.495   0.692   5.538  0.00  0.00    +0.365 C 
ATOM      9  OE2 GLU A   1      15.201   0.139   6.621  0.00  0.00    -0.246 OA
ATOM     10  OE1 GLU A   1      15.613   0.067   4.460  0.00  0.00    -0.246 OA
ENDBRANCH   7   8
ENDBRANCH   6   7
ENDBRANCH   1   6
TORSDOF 5
REMARK  Name = ../refined-set-2016/1n4k/1n4k_pocket.pdb
REMARK  130 active torsions:
REMARK  status: ('A' for Active; 'I' for Inactive)
REMARK    1  A    between atoms: _1  and  _3
REMARK    2  A    between atoms: _3  and  _4
REMARK    3  A    between atoms: _3  and  _6
REMARK    4  A    between atoms: _6  and  _7
REMARK    5  A    between atoms: _7  and  _8
REMARK    6  A    between atoms: _8  and  _9
REMARK    7  A    between atoms: _18  and  _20
REMARK    8  A    between atoms: _20  and  _21
REMARK    9  A    between atoms: _20  and  _23
REMARK   10  A    between atoms: _23  and  _24
REMARK   11  A    between atoms: _27  and  _29
REMARK   12  A    between atoms: _29  and  _30
REMARK   13  A    between atoms: _29  and  _32
REMARK   14  A    between atoms: _32  and  _33
REMARK   15  A    between atoms: _36  and  _38
REMARK   16  A    between atoms: _38  and  _39
REMARK   17  A    between atoms: _41  and  _43
REMARK   18  A    between atoms: _43  and  _44
REMARK   19  A    between atoms: _43  and  _46
REMARK   20  A    between atoms: _46  and  _47
REMARK   21  A    between atoms: _47  and  _48
REMARK   22  A    between atoms: _48  and  _49
REMARK   23  A    between atoms: _58  and  _60
REMARK   24  A    between atoms: _60  and  _61
REMARK   25  A    between atoms: _60  and  _63
REMARK   26  A    between atoms: _63  and  _64
REMARK   27  A    between atoms: _64  and  _65
REMARK   28  A    between atoms: _70  and  _72
REMARK   29  A    between atoms: _72  and  _73
REMARK   30  A    between atoms: _72  and  _75
REMARK   31  A    between atoms: _75  and  _76
REMARK   32  A    between atoms: _78  and  _80
REMARK   33  A    between atoms: _80  and  _81
REMARK   34  A    between atoms: _84  and  _86
REMARK   35  A    between atoms: _86  and  _87
REMARK   36  A    between atoms: _86  and  _89
REMARK   37  A    between atoms: _89  and  _90
REMARK   38  A    between atoms: _92  and  _94
REMARK   39  A    between atoms: _94  and  _95
REMARK   40  A    between atoms: _98  and  _100
REMARK   41  A    between atoms: _100  and  _101
REMARK   42  A    between atoms: _100  and  _103
REMARK   43  A    between atoms: _103  and  _104
REMARK   44  A    between atoms: _107  and  _109
REMARK   45  A    between atoms: _109  and  _110
REMARK   46  A    between atoms: _109  and  _112
REMARK   47  A    between atoms: _112  and  _113
REMARK   48  A    between atoms: _115  and  _117
REMARK   49  A    between atoms: _117  and  _118
REMARK   50  A    between atoms: _117  and  _120
REMARK   51  A    between atoms: _120  and  _121
REMARK   52  A    between atoms: _123  and  _125
REMARK   53  A    between atoms: _125  and  _126
REMARK   54  A    between atoms: _125  and  _128
REMARK   55  A    between atoms: _128  and  _129
REMARK   56  A    between atoms: _129  and  _130
REMARK   57  A    between atoms: _130  and  _131
REMARK   58  A    between atoms: _131  and  _132
REMARK   59  A    between atoms: _136  and  _138
REMARK   60  A    between atoms: _138  and  _139
REMARK   61  A    between atoms: _138  and  _141
REMARK   62  A    between atoms: _144  and  _146
REMARK   63  A    between atoms: _146  and  _147
REMARK   64  A    between atoms: _146  and  _149
REMARK   65  A    between atoms: _149  and  _150
REMARK   66  A    between atoms: _150  and  _151
REMARK   67  A    between atoms: _151  and  _152
REMARK   68  A    between atoms: _161  and  _163
REMARK   69  A    between atoms: _163  and  _164
REMARK   70  A    between atoms: _163  and  _166
REMARK   71  A    between atoms: _166  and  _167
REMARK   72  A    between atoms: _167  and  _168
REMARK   73  A    between atoms: _171  and  _173
REMARK   74  A    between atoms: _173  and  _174
REMARK   75  A    between atoms: _173  and  _176
REMARK   76  A    between atoms: _176  and  _177
REMARK   77  A    between atoms: _177  and  _178
REMARK   78  A    between atoms: _183  and  _185
REMARK   79  A    between atoms: _185  and  _186
REMARK   80  A    between atoms: _185  and  _188
REMARK   81  A    between atoms: _188  and  _189
REMARK   82  A    between atoms: _189  and  _190
REMARK   83  A    between atoms: _190  and  _191
REMARK   84  A    between atoms: _191  and  _192
REMARK   85  A    between atoms: _196  and  _198
REMARK   86  A    between atoms: _198  and  _199
REMARK   87  A    between atoms: _198  and  _201
REMARK   88  A    between atoms: _201  and  _202
REMARK   89  A    between atoms: _205  and  _207
REMARK   90  A    between atoms: _207  and  _208
REMARK   91  A    between atoms: _207  and  _210
REMARK   92  A    between atoms: _210  and  _211
REMARK   93  A    between atoms: _211  and  _212
REMARK   94  A    between atoms: _212  and  _213
REMARK   95  A    between atoms: _222  and  _224
REMARK   96  A    between atoms: _224  and  _225
REMARK   97  A    between atoms: _224  and  _227
REMARK   98  A    between atoms: _227  and  _228
REMARK   99  A    between atoms: _228  and  _229
REMARK  100  A    between atoms: _232  and  _234
REMARK  101  A    between atoms: _234  and  _235
REMARK  102  A    between atoms: _234  and  _237
REMARK  103  A    between atoms: _237  and  _238
REMARK  104  A    between atoms: _241  and  _243
REMARK  105  A    between atoms: _243  and  _244
REMARK  106  A    between atoms: _243  and  _246
REMARK  107  A    between atoms: _246  and  _247
REMARK  108  A    between atoms: _252  and  _253
REMARK  109  A    between atoms: _255  and  _257
REMARK  110  A    between atoms: _257  and  _258
REMARK  111  A    between atoms: _257  and  _260
REMARK  112  A    between atoms: _260  and  _261
REMARK  113  A    between atoms: _261  and  _262
REMARK  114  A    between atoms: _262  and  _263
REMARK  115  A    between atoms: _272  and  _274
REMARK  116  A    between atoms: _274  and  _275
REMARK  117  A    between atoms: _274  and  _277
REMARK  118  A    between atoms: _277  and  _278
REMARK  119  A    between atoms: _278  and  _279
REMARK  120  A    between atoms: _279  and  _280
REMARK  121  A    between atoms: _280  and  _281
REMARK  122  A    between atoms: _285  and  _287
REMARK  123  A    between atoms: _287  and  _288
REMARK  124  A    between atoms: _287  and  _290
REMARK  125  A    between atoms: _290  and  _291
REMARK  126  A    between atoms: _296  and  _298
REMARK  127  A    between atoms: _298  and  _299
REMARK  128  A    between atoms: _298  and  _301
REMARK  129  A    between atoms: _301  and  _302
REMARK  130  A    between atoms: _302  and  _303
REMARK                            x       y       z     vdW  Elec       q    Type
REMARK                         _______ _______ _______ _____ _____    ______ ____
ROOT
ATOM      1  O   HOH     1      23.558   6.549  19.992  0.00  0.00    +0.000 OA
ENDROOT
TORSDOF 0
REMARK  Name = ../refined-set-2016/1n4k/1n4k_pocket.pdb
REMARK  130 active torsions:
REMARK  status: ('A' for Active; 'I' for Inactive)
REMARK    1  A    between atoms: _1  and  _3
REMARK    2  A    between atoms: _3  and  _4
REMARK    3  A    between atoms: _3  and  _6
REMARK    4  A    between atoms: _6  and  _7
REMARK    5  A    between atoms: _7  and  _8
REMARK    6  A    between atoms: _8  and  _9
REMARK    7  A    between atoms: _18  and  _20
REMARK    8  A    between atoms: _20  and  _21
REMARK    9  A    between atoms: _20  and  _23
REMARK   10  A    between atoms: _23  and  _24
REMARK   11  A    between atoms: _27  and  _29
REMARK   12  A    between atoms: _29  and  _30
REMARK   13  A    between atoms: _29  and  _32
REMARK   14  A    between atoms: _32  and  _33
REMARK   15  A    between atoms: _36  and  _38
REMARK   16  A    between atoms: _38  and  _39
REMARK   17  A    between atoms: _41  and  _43
REMARK   18  A    between atoms: _43  and  _44
REMARK   19  A    between atoms: _43  and  _46
REMARK   20  A    between atoms: _46  and  _47
REMARK   21  A    between atoms: _47  and  _48
REMARK   22  A    between atoms: _48  and  _49
REMARK   23  A    between atoms: _58  and  _60
REMARK   24  A    between atoms: _60  and  _61
REMARK   25  A    between atoms: _60  and  _63
REMARK   26  A    between atoms: _63  and  _64
REMARK   27  A    between atoms: _64  and  _65
REMARK   28  A    between atoms: _70  and  _72
REMARK   29  A    between atoms: _72  and  _73
REMARK   30  A    between atoms: _72  and  _75
REMARK   31  A    between atoms: _75  and  _76
REMARK   32  A    between atoms: _78  and  _80
REMARK   33  A    between atoms: _80  and  _81
REMARK   34  A    between atoms: _84  and  _86
REMARK   35  A    between atoms: _86  and  _87
REMARK   36  A    between atoms: _86  and  _89
REMARK   37  A    between atoms: _89  and  _90
REMARK   38  A    between atoms: _92  and  _94
REMARK   39  A    between atoms: _94  and  _95
REMARK   40  A    between atoms: _98  and  _100
REMARK   41  A    between atoms: _100  and  _101
REMARK   42  A    between atoms: _100  and  _103
REMARK   43  A    between atoms: _103  and  _104
REMARK   44  A    between atoms: _107  and  _109
REMARK   45  A    between atoms: _109  and  _110
REMARK   46  A    between atoms: _109  and  _112
REMARK   47  A    between atoms: _112  and  _113
REMARK   48  A    between atoms: _115  and  _117
REMARK   49  A    between atoms: _117  and  _118
REMARK   50  A    between atoms: _117  and  _120
REMARK   51  A    between atoms: _120  and  _121
REMARK   52  A    between atoms: _123  and  _125
REMARK   53  A    between atoms: _125  and  _126
REMARK   54  A    between atoms: _125  and  _128
REMARK   55  A    between atoms: _128  and  _129
REMARK   56  A    between atoms: _129  and  _130
REMARK   57  A    between atoms: _130  and  _131
REMARK   58  A    between atoms: _131  and  _132
REMARK   59  A    between atoms: _136  and  _138
REMARK   60  A    between atoms: _138  and  _139
REMARK   61  A    between atoms: _138  and  _141
REMARK   62  A    between atoms: _144  and  _146
REMARK   63  A    between atoms: _146  and  _147
REMARK   64  A    between atoms: _146  and  _149
REMARK   65  A    between atoms: _149  and  _150
REMARK   66  A    between atoms: _150  and  _151
REMARK   67  A    between atoms: _151  and  _152
REMARK   68  A    between atoms: _161  and  _163
REMARK   69  A    between atoms: _163  and  _164
REMARK   70  A    between atoms: _163  and  _166
REMARK   71  A    between atoms: _166  and  _167
REMARK   72  A    between atoms: _167  and  _168
REMARK   73  A    between atoms: _171  and  _173
REMARK   74  A    between atoms: _173  and  _174
REMARK   75  A    between atoms: _173  and  _176
REMARK   76  A    between atoms: _176  and  _177
REMARK   77  A    between atoms: _177  and  _178
REMARK   78  A    between atoms: _183  and  _185
REMARK   79  A    between atoms: _185  and  _186
REMARK   80  A    between atoms: _185  and  _188
REMARK   81  A    between atoms: _188  and  _189
REMARK   82  A    between atoms: _189  and  _190
REMARK   83  A    between atoms: _190  and  _191
REMARK   84  A    between atoms: _191  and  _192
REMARK   85  A    between atoms: _196  and  _198
REMARK   86  A    between atoms: _198  and  _199
REMARK   87  A    between atoms: _198  and  _201
REMARK   88  A    between atoms: _201  and  _202
REMARK   89  A    between atoms: _205  and  _207
REMARK   90  A    between atoms: _207  and  _208
REMARK   91  A    between atoms: _207  and  _210
REMARK   92  A    between atoms: _210  and  _211
REMARK   93  A    between atoms: _211  and  _212
REMARK   94  A    between atoms: _212  and  _213
REMARK   95  A    between atoms: _222  and  _224
REMARK   96  A    between atoms: _224  and  _225
REMARK   97  A    between atoms: _224  and  _227
REMARK   98  A    between atoms: _227  and  _228
REMARK   99  A    between atoms: _228  and  _229
REMARK  100  A    between atoms: _232  and  _234
REMARK  101  A    between atoms: _234  and  _235
REMARK  102  A    between atoms: _234  and  _237
REMARK  103  A    between atoms: _237  and  _238
REMARK  104  A    between atoms: _241  and  _243
REMARK  105  A    between atoms: _243  and  _244
REMARK  106  A    between atoms: _243  and  _246
REMARK  107  A    between atoms: _246  and  _247
REMARK  108  A    between atoms: _252  and  _253
REMARK  109  A    between atoms: _255  and  _257
REMARK  110  A    between atoms: _257  and  _258
REMARK  111  A    between atoms: _257  and  _260
REMARK  112  A    between atoms: _260  and  _261
REMARK  113  A    between atoms: _261  and  _262
REMARK  114  A    between atoms: _262  and  _263
REMARK  115  A    between atoms: _272  and  _274
REMARK  116  A    between atoms: _274  and  _275
REMARK  117  A    between atoms: _274  and  _277
REMARK  118  A    between atoms: _277  and  _278
REMARK  119  A    between atoms: _278  and  _279
REMARK  120  A    between atoms: _279  and  _280
REMARK  121  A    between atoms: _280  and  _281
REMARK  122  A    between atoms: _285  and  _287
REMARK  123  A    between atoms: _287  and  _288
REMARK  124  A    between atoms: _287  and  _290
REMARK  125  A    between atoms: _290  and  _291
REMARK  126  A    between atoms: _296  and  _298
REMARK  127  A    between atoms: _298  and  _299
REMARK  128  A    between atoms: _298  and  _301
REMARK  129  A    between atoms: _301  and  _302
REMARK  130  A    between atoms: _302  and  _303
REMARK                            x       y       z     vdW  Elec       q    Type
REMARK                         _______ _______ _______ _____ _____    ______ ____
ROOT
ATOM      1  O   HOH     1      24.171  -5.268  22.717  0.00  0.00    +0.000 OA
ENDROOT
TORSDOF 0
REMARK  Name = ../refined-set-2016/1n4k/1n4k_pocket.pdb
REMARK  130 active torsions:
REMARK  status: ('A' for Active; 'I' for Inactive)
REMARK    1  A    between atoms: _1  and  _3
REMARK    2  A    between atoms: _3  and  _4
REMARK    3  A    between atoms: _3  and  _6
REMARK    4  A    between atoms: _6  and  _7
REMARK    5  A    between atoms: _7  and  _8
REMARK    6  A    between atoms: _8  and  _9
REMARK    7  A    between atoms: _18  and  _20
REMARK    8  A    between atoms: _20  and  _21
REMARK    9  A    between atoms: _20  and  _23
REMARK   10  A    between atoms: _23  and  _24
REMARK   11  A    between atoms: _27  and  _29
REMARK   12  A    between atoms: _29  and  _30
REMARK   13  A    between atoms: _29  and  _32
REMARK   14  A    between atoms: _32  and  _33
REMARK   15  A    between atoms: _36  and  _38
REMARK   16  A    between atoms: _38  and  _39
REMARK   17  A    between atoms: _41  and  _43
REMARK   18  A    between atoms: _43  and  _44
REMARK   19  A    between atoms: _43  and  _46
REMARK   20  A    between atoms: _46  and  _47
REMARK   21  A    between atoms: _47  and  _48
REMARK   22  A    between atoms: _48  and  _49
REMARK   23  A    between atoms: _58  and  _60
REMARK   24  A    between atoms: _60  and  _61
REMARK   25  A    between atoms: _60  and  _63
REMARK   26  A    between atoms: _63  and  _64
REMARK   27  A    between atoms: _64  and  _65
REMARK   28  A    between atoms: _70  and  _72
REMARK   29  A    between atoms: _72  and  _73
REMARK   30  A    between atoms: _72  and  _75
REMARK   31  A    between atoms: _75  and  _76
REMARK   32  A    between atoms: _78  and  _80
REMARK   33  A    between atoms: _80  and  _81
REMARK   34  A    between atoms: _84  and  _86
REMARK   35  A    between atoms: _86  and  _87
REMARK   36  A    between atoms: _86  and  _89
REMARK   37  A    between atoms: _89  and  _90
REMARK   38  A    between atoms: _92  and  _94
REMARK   39  A    between atoms: _94  and  _95
REMARK   40  A    between atoms: _98  and  _100
REMARK   41  A    between atoms: _100  and  _101
REMARK   42  A    between atoms: _100  and  _103
REMARK   43  A    between atoms: _103  and  _104
REMARK   44  A    between atoms: _107  and  _109
REMARK   45  A    between atoms: _109  and  _110
REMARK   46  A    between atoms: _109  and  _112
REMARK   47  A    between atoms: _112  and  _113
REMARK   48  A    between atoms: _115  and  _117
REMARK   49  A    between atoms: _117  and  _118
REMARK   50  A    between atoms: _117  and  _120
REMARK   51  A    between atoms: _120  and  _121
REMARK   52  A    between atoms: _123  and  _125
REMARK   53  A    between atoms: _125  and  _126
REMARK   54  A    between atoms: _125  and  _128
REMARK   55  A    between atoms: _128  and  _129
REMARK   56  A    between atoms: _129  and  _130
REMARK   57  A    between atoms: _130  and  _131
REMARK   58  A    between atoms: _131  and  _132
REMARK   59  A    between atoms: _136  and  _138
REMARK   60  A    between atoms: _138  and  _139
REMARK   61  A    between atoms: _138  and  _141
REMARK   62  A    between atoms: _144  and  _146
REMARK   63  A    between atoms: _146  and  _147
REMARK   64  A    between atoms: _146  and  _149
REMARK   65  A    between atoms: _149  and  _150
REMARK   66  A    between atoms: _150  and  _151
REMARK   67  A    between atoms: _151  and  _152
REMARK   68  A    between atoms: _161  and  _163
REMARK   69  A    between atoms: _163  and  _164
REMARK   70  A    between atoms: _163  and  _166
REMARK   71  A    between atoms: _166  and  _167
REMARK   72  A    between atoms: _167  and  _168
REMARK   73  A    between atoms: _171  and  _173
REMARK   74  A    between atoms: _173  and  _174
REMARK   75  A    between atoms: _173  and  _176
REMARK   76  A    between atoms: _176  and  _177
REMARK   77  A    between atoms: _177  and  _178
REMARK   78  A    between atoms: _183  and  _185
REMARK   79  A    between atoms: _185  and  _186
REMARK   80  A    between atoms: _185  and  _188
REMARK   81  A    between atoms: _188  and  _189
REMARK   82  A    between atoms: _189  and  _190
REMARK   83  A    between atoms: _190  and  _191
REMARK   84  A    between atoms: _191  and  _192
REMARK   85  A    between atoms: _196  and  _198
REMARK   86  A    between atoms: _198  and  _199
REMARK   87  A    between atoms: _198  and  _201
REMARK   88  A    between atoms: _201  and  _202
REMARK   89  A    between atoms: _205  and  _207
REMARK   90  A    between atoms: _207  and  _208
REMARK   91  A    between atoms: _207  and  _210
REMARK   92  A    between atoms: _210  and  _211
REMARK   93  A    between atoms: _211  and  _212
REMARK   94  A    between atoms: _212  and  _213
REMARK   95  A    between atoms: _222  and  _224
REMARK   96  A    between atoms: _224  and  _225
REMARK   97  A    between atoms: _224  and  _227
REMARK   98  A    between atoms: _227  and  _228
REMARK   99  A    between atoms: _228  and  _229
REMARK  100  A    between atoms: _232  and  _234
REMARK  101  A    between atoms: _234  and  _235
REMARK  102  A    between atoms: _234  and  _237
REMARK  103  A    between atoms: _237  and  _238
REMARK  104  A    between atoms: _241  and  _243
REMARK  105  A    between atoms: _243  and  _244
REMARK  106  A    between atoms: _243  and  _246
REMARK  107  A    between atoms: _246  and  _247
REMARK  108  A    between atoms: _252  and  _253
REMARK  109  A    between atoms: _255  and  _257
REMARK  110  A    between atoms: _257  and  _258
REMARK  111  A    between atoms: _257  and  _260
REMARK  112  A    between atoms: _260  and  _261
REMARK  113  A    between atoms: _261  and  _262
REMARK  114  A    between atoms: _262  and  _263
REMARK  115  A    between atoms: _272  and  _274
REMARK  116  A    between atoms: _274  and  _275
REMARK  117  A    between atoms: _274  and  _277
REMARK  118  A    between atoms: _277  and  _278
REMARK  119  A    between atoms: _278  and  _279
REMARK  120  A    between atoms: _279  and  _280
REMARK  121  A    between atoms: _280  and  _281
REMARK  122  A    between atoms: _285  and  _287
REMARK  123  A    between atoms: _287  and  _288
REMARK  124  A    between atoms: _287  and  _290
REMARK  125  A    between atoms: _290  and  _291
REMARK  126  A    between atoms: _296  and  _298
REMARK  127  A    between atoms: _298  and  _299
REMARK  128  A    between atoms: _298  and  _301
REMARK  129  A    between atoms: _301  and  _302
REMARK  130  A    between atoms: _302  and  _303
REMARK                            x       y       z     vdW  Elec       q    Type
REMARK                         _______ _______ _______ _____ _____    ______ ____
ROOT
ATOM      1  O   HOH     1      16.431  -0.649  10.101  0.00  0.00    +0.000 OA
ENDROOT
TORSDOF 0
REMARK  Name = ../refined-set-2016/1n4k/1n4k_pocket.pdb
REMARK  130 active torsions:
REMARK  status: ('A' for Active; 'I' for Inactive)
REMARK    1  A    between atoms: _1  and  _3
REMARK    2  A    between atoms: _3  and  _4
REMARK    3  A    between atoms: _3  and  _6
REMARK    4  A    between atoms: _6  and  _7
REMARK    5  A    between atoms: _7  and  _8
REMARK    6  A    between atoms: _8  and  _9
REMARK    7  A    between atoms: _18  and  _20
REMARK    8  A    between atoms: _20  and  _21
REMARK    9  A    between atoms: _20  and  _23
REMARK   10  A    between atoms: _23  and  _24
REMARK   11  A    between atoms: _27  and  _29
REMARK   12  A    between atoms: _29  and  _30
REMARK   13  A    between atoms: _29  and  _32
REMARK   14  A    between atoms: _32  and  _33
REMARK   15  A    between atoms: _36  and  _38
REMARK   16  A    between atoms: _38  and  _39
REMARK   17  A    between atoms: _41  and  _43
REMARK   18  A    between atoms: _43  and  _44
REMARK   19  A    between atoms: _43  and  _46
REMARK   20  A    between atoms: _46  and  _47
REMARK   21  A    between atoms: _47  and  _48
REMARK   22  A    between atoms: _48  and  _49
REMARK   23  A    between atoms: _58  and  _60
REMARK   24  A    between atoms: _60  and  _61
REMARK   25  A    between atoms: _60  and  _63
REMARK   26  A    between atoms: _63  and  _64
REMARK   27  A    between atoms: _64  and  _65
REMARK   28  A    between atoms: _70  and  _72
REMARK   29  A    between atoms: _72  and  _73
REMARK   30  A    between atoms: _72  and  _75
REMARK   31  A    between atoms: _75  and  _76
REMARK   32  A    between atoms: _78  and  _80
REMARK   33  A    between atoms: _80  and  _81
REMARK   34  A    between atoms: _84  and  _86
REMARK   35  A    between atoms: _86  and  _87
REMARK   36  A    between atoms: _86  and  _89
REMARK   37  A    between atoms: _89  and  _90
REMARK   38  A    between atoms: _92  and  _94
REMARK   39  A    between atoms: _94  and  _95
REMARK   40  A    between atoms: _98  and  _100
REMARK   41  A    between atoms: _100  and  _101
REMARK   42  A    between atoms: _100  and  _103
REMARK   43  A    between atoms: _103  and  _104
REMARK   44  A    between atoms: _107  and  _109
REMARK   45  A    between atoms: _109  and  _110
REMARK   46  A    between atoms: _109  and  _112
REMARK   47  A    between atoms: _112  and  _113
REMARK   48  A    between atoms: _115  and  _117
REMARK   49  A    between atoms: _117  and  _118
REMARK   50  A    between atoms: _117  and  _120
REMARK   51  A    between atoms: _120  and  _121
REMARK   52  A    between atoms: _123  and  _125
REMARK   53  A    between atoms: _125  and  _126
REMARK   54  A    between atoms: _125  and  _128
REMARK   55  A    between atoms: _128  and  _129
REMARK   56  A    between atoms: _129  and  _130
REMARK   57  A    between atoms: _130  and  _131
REMARK   58  A    between atoms: _131  and  _132
REMARK   59  A    between atoms: _136  and  _138
REMARK   60  A    between atoms: _138  and  _139
REMARK   61  A    between atoms: _138  and  _141
REMARK   62  A    between atoms: _144  and  _146
REMARK   63  A    between atoms: _146  and  _147
REMARK   64  A    between atoms: _146  and  _149
REMARK   65  A    between atoms: _149  and  _150
REMARK   66  A    between atoms: _150  and  _151
REMARK   67  A    between atoms: _151  and  _152
REMARK   68  A    between atoms: _161  and  _163
REMARK   69  A    between atoms: _163  and  _164
REMARK   70  A    between atoms: _163  and  _166
REMARK   71  A    between atoms: _166  and  _167
REMARK   72  A    between atoms: _167  and  _168
REMARK   73  A    between atoms: _171  and  _173
REMARK   74  A    between atoms: _173  and  _174
REMARK   75  A    between atoms: _173  and  _176
REMARK   76  A    between atoms: _176  and  _177
REMARK   77  A    between atoms: _177  and  _178
REMARK   78  A    between atoms: _183  and  _185
REMARK   79  A    between atoms: _185  and  _186
REMARK   80  A    between atoms: _185  and  _188
REMARK   81  A    between atoms: _188  and  _189
REMARK   82  A    between atoms: _189  and  _190
REMARK   83  A    between atoms: _190  and  _191
REMARK   84  A    between atoms: _191  and  _192
REMARK   85  A    between atoms: _196  and  _198
REMARK   86  A    between atoms: _198  and  _199
REMARK   87  A    between atoms: _198  and  _201
REMARK   88  A    between atoms: _201  and  _202
REMARK   89  A    between atoms: _205  and  _207
REMARK   90  A    between atoms: _207  and  _208
REMARK   91  A    between atoms: _207  and  _210
REMARK   92  A    between atoms: _210  and  _211
REMARK   93  A    between atoms: _211  and  _212
REMARK   94  A    between atoms: _212  and  _213
REMARK   95  A    between atoms: _222  and  _224
REMARK   96  A    between atoms: _224  and  _225
REMARK   97  A    between atoms: _224  and  _227
REMARK   98  A    between atoms: _227  and  _228
REMARK   99  A    between atoms: _228  and  _229
REMARK  100  A    between atoms: _232  and  _234
REMARK  101  A    between atoms: _234  and  _235
REMARK  102  A    between atoms: _234  and  _237
REMARK  103  A    between atoms: _237  and  _238
REMARK  104  A    between atoms: _241  and  _243
REMARK  105  A    between atoms: _243  and  _244
REMARK  106  A    between atoms: _243  and  _246
REMARK  107  A    between atoms: _246  and  _247
REMARK  108  A    between atoms: _252  and  _253
REMARK  109  A    between atoms: _255  and  _257
REMARK  110  A    between atoms: _257  and  _258
REMARK  111  A    between atoms: _257  and  _260
REMARK  112  A    between atoms: _260  and  _261
REMARK  113  A    between atoms: _261  and  _262
REMARK  114  A    between atoms: _262  and  _263
REMARK  115  A    between atoms: _272  and  _274
REMARK  116  A    between atoms: _274  and  _275
REMARK  117  A    between atoms: _274  and  _277
REMARK  118  A    between atoms: _277  and  _278
REMARK  119  A    between atoms: _278  and  _279
REMARK  120  A    between atoms: _279  and  _280
REMARK  121  A    between atoms: _280  and  _281
REMARK  122  A    between atoms: _285  and  _287
REMARK  123  A    between atoms: _287  and  _288
REMARK  124  A    between atoms: _287  and  _290
REMARK  125  A    between atoms: _290  and  _291
REMARK  126  A    between atoms: _296  and  _298
REMARK  127  A    between atoms: _298  and  _299
REMARK  128  A    between atoms: _298  and  _301
REMARK  129  A    between atoms: _301  and  _302
REMARK  130  A    between atoms: _302  and  _303
REMARK                            x       y       z     vdW  Elec       q    Type
REMARK                         _______ _______ _______ _____ _____    ______ ____
ROOT
ATOM      1  O   HOH     1      26.162   2.242  12.330  0.00  0.00    +0.000 OA
ENDROOT
TORSDOF 0
REMARK  Name = ../refined-set-2016/1n4k/1n4k_pocket.pdb
REMARK  130 active torsions:
REMARK  status: ('A' for Active; 'I' for Inactive)
REMARK    1  A    between atoms: _1  and  _3
REMARK    2  A    between atoms: _3  and  _4
REMARK    3  A    between atoms: _3  and  _6
REMARK    4  A    between atoms: _6  and  _7
REMARK    5  A    between atoms: _7  and  _8
REMARK    6  A    between atoms: _8  and  _9
REMARK    7  A    between atoms: _18  and  _20
REMARK    8  A    between atoms: _20  and  _21
REMARK    9  A    between atoms: _20  and  _23
REMARK   10  A    between atoms: _23  and  _24
REMARK   11  A    between atoms: _27  and  _29
REMARK   12  A    between atoms: _29  and  _30
REMARK   13  A    between atoms: _29  and  _32
REMARK   14  A    between atoms: _32  and  _33
REMARK   15  A    between atoms: _36  and  _38
REMARK   16  A    between atoms: _38  and  _39
REMARK   17  A    between atoms: _41  and  _43
REMARK   18  A    between atoms: _43  and  _44
REMARK   19  A    between atoms: _43  and  _46
REMARK   20  A    between atoms: _46  and  _47
REMARK   21  A    between atoms: _47  and  _48
REMARK   22  A    between atoms: _48  and  _49
REMARK   23  A    between atoms: _58  and  _60
REMARK   24  A    between atoms: _60  and  _61
REMARK   25  A    between atoms: _60  and  _63
REMARK   26  A    between atoms: _63  and  _64
REMARK   27  A    between atoms: _64  and  _65
REMARK   28  A    between atoms: _70  and  _72
REMARK   29  A    between atoms: _72  and  _73
REMARK   30  A    between atoms: _72  and  _75
REMARK   31  A    between atoms: _75  and  _76
REMARK   32  A    between atoms: _78  and  _80
REMARK   33  A    between atoms: _80  and  _81
REMARK   34  A    between atoms: _84  and  _86
REMARK   35  A    between atoms: _86  and  _87
REMARK   36  A    between atoms: _86  and  _89
REMARK   37  A    between atoms: _89  and  _90
REMARK   38  A    between atoms: _92  and  _94
REMARK   39  A    between atoms: _94  and  _95
REMARK   40  A    between atoms: _98  and  _100
REMARK   41  A    between atoms: _100  and  _101
REMARK   42  A    between atoms: _100  and  _103
REMARK   43  A    between atoms: _103  and  _104
REMARK   44  A    between atoms: _107  and  _109
REMARK   45  A    between atoms: _109  and  _110
REMARK   46  A    between atoms: _109  and  _112
REMARK   47  A    between atoms: _112  and  _113
REMARK   48  A    between atoms: _115  and  _117
REMARK   49  A    between atoms: _117  and  _118
REMARK   50  A    between atoms: _117  and  _120
REMARK   51  A    between atoms: _120  and  _121
REMARK   52  A    between atoms: _123  and  _125
REMARK   53  A    between atoms: _125  and  _126
REMARK   54  A    between atoms: _125  and  _128
REMARK   55  A    between atoms: _128  and  _129
REMARK   56  A    between atoms: _129  and  _130
REMARK   57  A    between atoms: _130  and  _131
REMARK   58  A    between atoms: _131  and  _132
REMARK   59  A    between atoms: _136  and  _138
REMARK   60  A    between atoms: _138  and  _139
REMARK   61  A    between atoms: _138  and  _141
REMARK   62  A    between atoms: _144  and  _146
REMARK   63  A    between atoms: _146  and  _147
REMARK   64  A    between atoms: _146  and  _149
REMARK   65  A    between atoms: _149  and  _150
REMARK   66  A    between atoms: _150  and  _151
REMARK   67  A    between atoms: _151  and  _152
REMARK   68  A    between atoms: _161  and  _163
REMARK   69  A    between atoms: _163  and  _164
REMARK   70  A    between atoms: _163  and  _166
REMARK   71  A    between atoms: _166  and  _167
REMARK   72  A    between atoms: _167  and  _168
REMARK   73  A    between atoms: _171  and  _173
REMARK   74  A    between atoms: _173  and  _174
REMARK   75  A    between atoms: _173  and  _176
REMARK   76  A    between atoms: _176  and  _177
REMARK   77  A    between atoms: _177  and  _178
REMARK   78  A    between atoms: _183  and  _185
REMARK   79  A    between atoms: _185  and  _186
REMARK   80  A    between atoms: _185  and  _188
REMARK   81  A    between atoms: _188  and  _189
REMARK   82  A    between atoms: _189  and  _190
REMARK   83  A    between atoms: _190  and  _191
REMARK   84  A    between atoms: _191  and  _192
REMARK   85  A    between atoms: _196  and  _198
REMARK   86  A    between atoms: _198  and  _199
REMARK   87  A    between atoms: _198  and  _201
REMARK   88  A    between atoms: _201  and  _202
REMARK   89  A    between atoms: _205  and  _207
REMARK   90  A    between atoms: _207  and  _208
REMARK   91  A    between atoms: _207  and  _210
REMARK   92  A    between atoms: _210  and  _211
REMARK   93  A    between atoms: _211  and  _212
REMARK   94  A    between atoms: _212  and  _213
REMARK   95  A    between atoms: _222  and  _224
REMARK   96  A    between atoms: _224  and  _225
REMARK   97  A    between atoms: _224  and  _227
REMARK   98  A    between atoms: _227  and  _228
REMARK   99  A    between atoms: _228  and  _229
REMARK  100  A    between atoms: _232  and  _234
REMARK  101  A    between atoms: _234  and  _235
REMARK  102  A    between atoms: _234  and  _237
REMARK  103  A    between atoms: _237  and  _238
REMARK  104  A    between atoms: _241  and  _243
REMARK  105  A    between atoms: _243  and  _244
REMARK  106  A    between atoms: _243  and  _246
REMARK  107  A    between atoms: _246  and  _247
REMARK  108  A    between atoms: _252  and  _253
REMARK  109  A    between atoms: _255  and  _257
REMARK  110  A    between atoms: _257  and  _258
REMARK  111  A    between atoms: _257  and  _260
REMARK  112  A    between atoms: _260  and  _261
REMARK  113  A    between atoms: _261  and  _262
REMARK  114  A    between atoms: _262  and  _263
REMARK  115  A    between atoms: _272  and  _274
REMARK  116  A    between atoms: _274  and  _275
REMARK  117  A    between atoms: _274  and  _277
REMARK  118  A    between atoms: _277  and  _278
REMARK  119  A    between atoms: _278  and  _279
REMARK  120  A    between atoms: _279  and  _280
REMARK  121  A    between atoms: _280  and  _281
REMARK  122  A    between atoms: _285  and  _287
REMARK  123  A    between atoms: _287  and  _288
REMARK  124  A    between atoms: _287  and  _290
REMARK  125  A    between atoms: _290  and  _291
REMARK  126  A    between atoms: _296  and  _298
REMARK  127  A    between atoms: _298  and  _299
REMARK  128  A    between atoms: _298  and  _301
REMARK  129  A    between atoms: _301  and  _302
REMARK  130  A    between atoms: _302  and  _303
REMARK                            x       y       z     vdW  Elec       q    Type
REMARK                         _______ _______ _______ _____ _____    ______ ____
ROOT
ATOM      1  O   HOH     1      20.901  -0.088  16.567  0.00  0.00    +0.000 OA
ENDROOT
TORSDOF 0
REMARK  Name = ../refined-set-2016/1n4k/1n4k_pocket.pdb
REMARK  130 active torsions:
REMARK  status: ('A' for Active; 'I' for Inactive)
REMARK    1  A    between atoms: _1  and  _3
REMARK    2  A    between atoms: _3  and  _4
REMARK    3  A    between atoms: _3  and  _6
REMARK    4  A    between atoms: _6  and  _7
REMARK    5  A    between atoms: _7  and  _8
REMARK    6  A    between atoms: _8  and  _9
REMARK    7  A    between atoms: _18  and  _20
REMARK    8  A    between atoms: _20  and  _21
REMARK    9  A    between atoms: _20  and  _23
REMARK   10  A    between atoms: _23  and  _24
REMARK   11  A    between atoms: _27  and  _29
REMARK   12  A    between atoms: _29  and  _30
REMARK   13  A    between atoms: _29  and  _32
REMARK   14  A    between atoms: _32  and  _33
REMARK   15  A    between atoms: _36  and  _38
REMARK   16  A    between atoms: _38  and  _39
REMARK   17  A    between atoms: _41  and  _43
REMARK   18  A    between atoms: _43  and  _44
REMARK   19  A    between atoms: _43  and  _46
REMARK   20  A    between atoms: _46  and  _47
REMARK   21  A    between atoms: _47  and  _48
REMARK   22  A    between atoms: _48  and  _49
REMARK   23  A    between atoms: _58  and  _60
REMARK   24  A    between atoms: _60  and  _61
REMARK   25  A    between atoms: _60  and  _63
REMARK   26  A    between atoms: _63  and  _64
REMARK   27  A    between atoms: _64  and  _65
REMARK   28  A    between atoms: _70  and  _72
REMARK   29  A    between atoms: _72  and  _73
REMARK   30  A    between atoms: _72  and  _75
REMARK   31  A    between atoms: _75  and  _76
REMARK   32  A    between atoms: _78  and  _80
REMARK   33  A    between atoms: _80  and  _81
REMARK   34  A    between atoms: _84  and  _86
REMARK   35  A    between atoms: _86  and  _87
REMARK   36  A    between atoms: _86  and  _89
REMARK   37  A    between atoms: _89  and  _90
REMARK   38  A    between atoms: _92  and  _94
REMARK   39  A    between atoms: _94  and  _95
REMARK   40  A    between atoms: _98  and  _100
REMARK   41  A    between atoms: _100  and  _101
REMARK   42  A    between atoms: _100  and  _103
REMARK   43  A    between atoms: _103  and  _104
REMARK   44  A    between atoms: _107  and  _109
REMARK   45  A    between atoms: _109  and  _110
REMARK   46  A    between atoms: _109  and  _112
REMARK   47  A    between atoms: _112  and  _113
REMARK   48  A    between atoms: _115  and  _117
REMARK   49  A    between atoms: _117  and  _118
REMARK   50  A    between atoms: _117  and  _120
REMARK   51  A    between atoms: _120  and  _121
REMARK   52  A    between atoms: _123  and  _125
REMARK   53  A    between atoms: _125  and  _126
REMARK   54  A    between atoms: _125  and  _128
REMARK   55  A    between atoms: _128  and  _129
REMARK   56  A    between atoms: _129  and  _130
REMARK   57  A    between atoms: _130  and  _131
REMARK   58  A    between atoms: _131  and  _132
REMARK   59  A    between atoms: _136  and  _138
REMARK   60  A    between atoms: _138  and  _139
REMARK   61  A    between atoms: _138  and  _141
REMARK   62  A    between atoms: _144  and  _146
REMARK   63  A    between atoms: _146  and  _147
REMARK   64  A    between atoms: _146  and  _149
REMARK   65  A    between atoms: _149  and  _150
REMARK   66  A    between atoms: _150  and  _151
REMARK   67  A    between atoms: _151  and  _152
REMARK   68  A    between atoms: _161  and  _163
REMARK   69  A    between atoms: _163  and  _164
REMARK   70  A    between atoms: _163  and  _166
REMARK   71  A    between atoms: _166  and  _167
REMARK   72  A    between atoms: _167  and  _168
REMARK   73  A    between atoms: _171  and  _173
REMARK   74  A    between atoms: _173  and  _174
REMARK   75  A    between atoms: _173  and  _176
REMARK   76  A    between atoms: _176  and  _177
REMARK   77  A    between atoms: _177  and  _178
REMARK   78  A    between atoms: _183  and  _185
REMARK   79  A    between atoms: _185  and  _186
REMARK   80  A    between atoms: _185  and  _188
REMARK   81  A    between atoms: _188  and  _189
REMARK   82  A    between atoms: _189  and  _190
REMARK   83  A    between atoms: _190  and  _191
REMARK   84  A    between atoms: _191  and  _192
REMARK   85  A    between atoms: _196  and  _198
REMARK   86  A    between atoms: _198  and  _199
REMARK   87  A    between atoms: _198  and  _201
REMARK   88  A    between atoms: _201  and  _202
REMARK   89  A    between atoms: _205  and  _207
REMARK   90  A    between atoms: _207  and  _208
REMARK   91  A    between atoms: _207  and  _210
REMARK   92  A    between atoms: _210  and  _211
REMARK   93  A    between atoms: _211  and  _212
REMARK   94  A    between atoms: _212  and  _213
REMARK   95  A    between atoms: _222  and  _224
REMARK   96  A    between atoms: _224  and  _225
REMARK   97  A    between atoms: _224  and  _227
REMARK   98  A    between atoms: _227  and  _228
REMARK   99  A    between atoms: _228  and  _229
REMARK  100  A    between atoms: _232  and  _234
REMARK  101  A    between atoms: _234  and  _235
REMARK  102  A    between atoms: _234  and  _237
REMARK  103  A    between atoms: _237  and  _238
REMARK  104  A    between atoms: _241  and  _243
REMARK  105  A    between atoms: _243  and  _244
REMARK  106  A    between atoms: _243  and  _246
REMARK  107  A    between atoms: _246  and  _247
REMARK  108  A    between atoms: _252  and  _253
REMARK  109  A    between atoms: _255  and  _257
REMARK  110  A    between atoms: _257  and  _258
REMARK  111  A    between atoms: _257  and  _260
REMARK  112  A    between atoms: _260  and  _261
REMARK  113  A    between atoms: _261  and  _262
REMARK  114  A    between atoms: _262  and  _263
REMARK  115  A    between atoms: _272  and  _274
REMARK  116  A    between atoms: _274  and  _275
REMARK  117  A    between atoms: _274  and  _277
REMARK  118  A    between atoms: _277  and  _278
REMARK  119  A    between atoms: _278  and  _279
REMARK  120  A    between atoms: _279  and  _280
REMARK  121  A    between atoms: _280  and  _281
REMARK  122  A    between atoms: _285  and  _287
REMARK  123  A    between atoms: _287  and  _288
REMARK  124  A    between atoms: _287  and  _290
REMARK  125  A    between atoms: _290  and  _291
REMARK  126  A    between atoms: _296  and  _298
REMARK  127  A    between atoms: _298  and  _299
REMARK  128  A    between atoms: _298  and  _301
REMARK  129  A    between atoms: _301  and  _302
REMARK  130  A    between atoms: _302  and  _303
REMARK                            x       y       z     vdW  Elec       q    Type
REMARK                         _______ _______ _______ _____ _____    ______ ____
ROOT
ATOM      1  O   HOH     1      21.333   0.630  19.123  0.00  0.00    +0.000 OA
ENDROOT
TORSDOF 0
REMARK  Name = ../refined-set-2016/1n4k/1n4k_pocket.pdb
REMARK  130 active torsions:
REMARK  status: ('A' for Active; 'I' for Inactive)
REMARK    1  A    between atoms: _1  and  _3
REMARK    2  A    between atoms: _3  and  _4
REMARK    3  A    between atoms: _3  and  _6
REMARK    4  A    between atoms: _6  and  _7
REMARK    5  A    between atoms: _7  and  _8
REMARK    6  A    between atoms: _8  and  _9
REMARK    7  A    between atoms: _18  and  _20
REMARK    8  A    between atoms: _20  and  _21
REMARK    9  A    between atoms: _20  and  _23
REMARK   10  A    between atoms: _23  and  _24
REMARK   11  A    between atoms: _27  and  _29
REMARK   12  A    between atoms: _29  and  _30
REMARK   13  A    between atoms: _29  and  _32
REMARK   14  A    between atoms: _32  and  _33
REMARK   15  A    between atoms: _36  and  _38
REMARK   16  A    between atoms: _38  and  _39
REMARK   17  A    between atoms: _41  and  _43
REMARK   18  A    between atoms: _43  and  _44
REMARK   19  A    between atoms: _43  and  _46
REMARK   20  A    between atoms: _46  and  _47
REMARK   21  A    between atoms: _47  and  _48
REMARK   22  A    between atoms: _48  and  _49
REMARK   23  A    between atoms: _58  and  _60
REMARK   24  A    between atoms: _60  and  _61
REMARK   25  A    between atoms: _60  and  _63
REMARK   26  A    between atoms: _63  and  _64
REMARK   27  A    between atoms: _64  and  _65
REMARK   28  A    between atoms: _70  and  _72
REMARK   29  A    between atoms: _72  and  _73
REMARK   30  A    between atoms: _72  and  _75
REMARK   31  A    between atoms: _75  and  _76
REMARK   32  A    between atoms: _78  and  _80
REMARK   33  A    between atoms: _80  and  _81
REMARK   34  A    between atoms: _84  and  _86
REMARK   35  A    between atoms: _86  and  _87
REMARK   36  A    between atoms: _86  and  _89
REMARK   37  A    between atoms: _89  and  _90
REMARK   38  A    between atoms: _92  and  _94
REMARK   39  A    between atoms: _94  and  _95
REMARK   40  A    between atoms: _98  and  _100
REMARK   41  A    between atoms: _100  and  _101
REMARK   42  A    between atoms: _100  and  _103
REMARK   43  A    between atoms: _103  and  _104
REMARK   44  A    between atoms: _107  and  _109
REMARK   45  A    between atoms: _109  and  _110
REMARK   46  A    between atoms: _109  and  _112
REMARK   47  A    between atoms: _112  and  _113
REMARK   48  A    between atoms: _115  and  _117
REMARK   49  A    between atoms: _117  and  _118
REMARK   50  A    between atoms: _117  and  _120
REMARK   51  A    between atoms: _120  and  _121
REMARK   52  A    between atoms: _123  and  _125
REMARK   53  A    between atoms: _125  and  _126
REMARK   54  A    between atoms: _125  and  _128
REMARK   55  A    between atoms: _128  and  _129
REMARK   56  A    between atoms: _129  and  _130
REMARK   57  A    between atoms: _130  and  _131
REMARK   58  A    between atoms: _131  and  _132
REMARK   59  A    between atoms: _136  and  _138
REMARK   60  A    between atoms: _138  and  _139
REMARK   61  A    between atoms: _138  and  _141
REMARK   62  A    between atoms: _144  and  _146
REMARK   63  A    between atoms: _146  and  _147
REMARK   64  A    between atoms: _146  and  _149
REMARK   65  A    between atoms: _149  and  _150
REMARK   66  A    between atoms: _150  and  _151
REMARK   67  A    between atoms: _151  and  _152
REMARK   68  A    between atoms: _161  and  _163
REMARK   69  A    between atoms: _163  and  _164
REMARK   70  A    between atoms: _163  and  _166
REMARK   71  A    between atoms: _166  and  _167
REMARK   72  A    between atoms: _167  and  _168
REMARK   73  A    between atoms: _171  and  _173
REMARK   74  A    between atoms: _173  and  _174
REMARK   75  A    between atoms: _173  and  _176
REMARK   76  A    between atoms: _176  and  _177
REMARK   77  A    between atoms: _177  and  _178
REMARK   78  A    between atoms: _183  and  _185
REMARK   79  A    between atoms: _185  and  _186
REMARK   80  A    between atoms: _185  and  _188
REMARK   81  A    between atoms: _188  and  _189
REMARK   82  A    between atoms: _189  and  _190
REMARK   83  A    between atoms: _190  and  _191
REMARK   84  A    between atoms: _191  and  _192
REMARK   85  A    between atoms: _196  and  _198
REMARK   86  A    between atoms: _198  and  _199
REMARK   87  A    between atoms: _198  and  _201
REMARK   88  A    between atoms: _201  and  _202
REMARK   89  A    between atoms: _205  and  _207
REMARK   90  A    between atoms: _207  and  _208
REMARK   91  A    between atoms: _207  and  _210
REMARK   92  A    between atoms: _210  and  _211
REMARK   93  A    between atoms: _211  and  _212
REMARK   94  A    between atoms: _212  and  _213
REMARK   95  A    between atoms: _222  and  _224
REMARK   96  A    between atoms: _224  and  _225
REMARK   97  A    between atoms: _224  and  _227
REMARK   98  A    between atoms: _227  and  _228
REMARK   99  A    between atoms: _228  and  _229
REMARK  100  A    between atoms: _232  and  _234
REMARK  101  A    between atoms: _234  and  _235
REMARK  102  A    between atoms: _234  and  _237
REMARK  103  A    between atoms: _237  and  _238
REMARK  104  A    between atoms: _241  and  _243
REMARK  105  A    between atoms: _243  and  _244
REMARK  106  A    between atoms: _243  and  _246
REMARK  107  A    between atoms: _246  and  _247
REMARK  108  A    between atoms: _252  and  _253
REMARK  109  A    between atoms: _255  and  _257
REMARK  110  A    between atoms: _257  and  _258
REMARK  111  A    between atoms: _257  and  _260
REMARK  112  A    between atoms: _260  and  _261
REMARK  113  A    between atoms: _261  and  _262
REMARK  114  A    between atoms: _262  and  _263
REMARK  115  A    between atoms: _272  and  _274
REMARK  116  A    between atoms: _274  and  _275
REMARK  117  A    between atoms: _274  and  _277
REMARK  118  A    between atoms: _277  and  _278
REMARK  119  A    between atoms: _278  and  _279
REMARK  120  A    between atoms: _279  and  _280
REMARK  121  A    between atoms: _280  and  _281
REMARK  122  A    between atoms: _285  and  _287
REMARK  123  A    between atoms: _287  and  _288
REMARK  124  A    between atoms: _287  and  _290
REMARK  125  A    between atoms: _290  and  _291
REMARK  126  A    between atoms: _296  and  _298
REMARK  127  A    between atoms: _298  and  _299
REMARK  128  A    between atoms: _298  and  _301
REMARK  129  A    between atoms: _301  and  _302
REMARK  130  A    between atoms: _302  and  _303
REMARK                            x       y       z     vdW  Elec       q    Type
REMARK                         _______ _______ _______ _____ _____    ______ ____
ROOT
ATOM      1  O   HOH     1      16.845   4.303  17.444  0.00  0.00    +0.000 OA
ENDROOT
TORSDOF 0
REMARK  Name = ../refined-set-2016/1n4k/1n4k_pocket.pdb
REMARK  130 active torsions:
REMARK  status: ('A' for Active; 'I' for Inactive)
REMARK    1  A    between atoms: _1  and  _3
REMARK    2  A    between atoms: _3  and  _4
REMARK    3  A    between atoms: _3  and  _6
REMARK    4  A    between atoms: _6  and  _7
REMARK    5  A    between atoms: _7  and  _8
REMARK    6  A    between atoms: _8  and  _9
REMARK    7  A    between atoms: _18  and  _20
REMARK    8  A    between atoms: _20  and  _21
REMARK    9  A    between atoms: _20  and  _23
REMARK   10  A    between atoms: _23  and  _24
REMARK   11  A    between atoms: _27  and  _29
REMARK   12  A    between atoms: _29  and  _30
REMARK   13  A    between atoms: _29  and  _32
REMARK   14  A    between atoms: _32  and  _33
REMARK   15  A    between atoms: _36  and  _38
REMARK   16  A    between atoms: _38  and  _39
REMARK   17  A    between atoms: _41  and  _43
REMARK   18  A    between atoms: _43  and  _44
REMARK   19  A    between atoms: _43  and  _46
REMARK   20  A    between atoms: _46  and  _47
REMARK   21  A    between atoms: _47  and  _48
REMARK   22  A    between atoms: _48  and  _49
REMARK   23  A    between atoms: _58  and  _60
REMARK   24  A    between atoms: _60  and  _61
REMARK   25  A    between atoms: _60  and  _63
REMARK   26  A    between atoms: _63  and  _64
REMARK   27  A    between atoms: _64  and  _65
REMARK   28  A    between atoms: _70  and  _72
REMARK   29  A    between atoms: _72  and  _73
REMARK   30  A    between atoms: _72  and  _75
REMARK   31  A    between atoms: _75  and  _76
REMARK   32  A    between atoms: _78  and  _80
REMARK   33  A    between atoms: _80  and  _81
REMARK   34  A    between atoms: _84  and  _86
REMARK   35  A    between atoms: _86  and  _87
REMARK   36  A    between atoms: _86  and  _89
REMARK   37  A    between atoms: _89  and  _90
REMARK   38  A    between atoms: _92  and  _94
REMARK   39  A    between atoms: _94  and  _95
REMARK   40  A    between atoms: _98  and  _100
REMARK   41  A    between atoms: _100  and  _101
REMARK   42  A    between atoms: _100  and  _103
REMARK   43  A    between atoms: _103  and  _104
REMARK   44  A    between atoms: _107  and  _109
REMARK   45  A    between atoms: _109  and  _110
REMARK   46  A    between atoms: _109  and  _112
REMARK   47  A    between atoms: _112  and  _113
REMARK   48  A    between atoms: _115  and  _117
REMARK   49  A    between atoms: _117  and  _118
REMARK   50  A    between atoms: _117  and  _120
REMARK   51  A    between atoms: _120  and  _121
REMARK   52  A    between atoms: _123  and  _125
REMARK   53  A    between atoms: _125  and  _126
REMARK   54  A    between atoms: _125  and  _128
REMARK   55  A    between atoms: _128  and  _129
REMARK   56  A    between atoms: _129  and  _130
REMARK   57  A    between atoms: _130  and  _131
REMARK   58  A    between atoms: _131  and  _132
REMARK   59  A    between atoms: _136  and  _138
REMARK   60  A    between atoms: _138  and  _139
REMARK   61  A    between atoms: _138  and  _141
REMARK   62  A    between atoms: _144  and  _146
REMARK   63  A    between atoms: _146  and  _147
REMARK   64  A    between atoms: _146  and  _149
REMARK   65  A    between atoms: _149  and  _150
REMARK   66  A    between atoms: _150  and  _151
REMARK   67  A    between atoms: _151  and  _152
REMARK   68  A    between atoms: _161  and  _163
REMARK   69  A    between atoms: _163  and  _164
REMARK   70  A    between atoms: _163  and  _166
REMARK   71  A    between atoms: _166  and  _167
REMARK   72  A    between atoms: _167  and  _168
REMARK   73  A    between atoms: _171  and  _173
REMARK   74  A    between atoms: _173  and  _174
REMARK   75  A    between atoms: _173  and  _176
REMARK   76  A    between atoms: _176  and  _177
REMARK   77  A    between atoms: _177  and  _178
REMARK   78  A    between atoms: _183  and  _185
REMARK   79  A    between atoms: _185  and  _186
REMARK   80  A    between atoms: _185  and  _188
REMARK   81  A    between atoms: _188  and  _189
REMARK   82  A    between atoms: _189  and  _190
REMARK   83  A    between atoms: _190  and  _191
REMARK   84  A    between atoms: _191  and  _192
REMARK   85  A    between atoms: _196  and  _198
REMARK   86  A    between atoms: _198  and  _199
REMARK   87  A    between atoms: _198  and  _201
REMARK   88  A    between atoms: _201  and  _202
REMARK   89  A    between atoms: _205  and  _207
REMARK   90  A    between atoms: _207  and  _208
REMARK   91  A    between atoms: _207  and  _210
REMARK   92  A    between atoms: _210  and  _211
REMARK   93  A    between atoms: _211  and  _212
REMARK   94  A    between atoms: _212  and  _213
REMARK   95  A    between atoms: _222  and  _224
REMARK   96  A    between atoms: _224  and  _225
REMARK   97  A    between atoms: _224  and  _227
REMARK   98  A    between atoms: _227  and  _228
REMARK   99  A    between atoms: _228  and  _229
REMARK  100  A    between atoms: _232  and  _234
REMARK  101  A    between atoms: _234  and  _235
REMARK  102  A    between atoms: _234  and  _237
REMARK  103  A    between atoms: _237  and  _238
REMARK  104  A    between atoms: _241  and  _243
REMARK  105  A    between atoms: _243  and  _244
REMARK  106  A    between atoms: _243  and  _246
REMARK  107  A    between atoms: _246  and  _247
REMARK  108  A    between atoms: _252  and  _253
REMARK  109  A    between atoms: _255  and  _257
REMARK  110  A    between atoms: _257  and  _258
REMARK  111  A    between atoms: _257  and  _260
REMARK  112  A    between atoms: _260  and  _261
REMARK  113  A    between atoms: _261  and  _262
REMARK  114  A    between atoms: _262  and  _263
REMARK  115  A    between atoms: _272  and  _274
REMARK  116  A    between atoms: _274  and  _275
REMARK  117  A    between atoms: _274  and  _277
REMARK  118  A    between atoms: _277  and  _278
REMARK  119  A    between atoms: _278  and  _279
REMARK  120  A    between atoms: _279  and  _280
REMARK  121  A    between atoms: _280  and  _281
REMARK  122  A    between atoms: _285  and  _287
REMARK  123  A    between atoms: _287  and  _288
REMARK  124  A    between atoms: _287  and  _290
REMARK  125  A    between atoms: _290  and  _291
REMARK  126  A    between atoms: _296  and  _298
REMARK  127  A    between atoms: _298  and  _299
REMARK  128  A    between atoms: _298  and  _301
REMARK  129  A    between atoms: _301  and  _302
REMARK  130  A    between atoms: _302  and  _303
REMARK                            x       y       z     vdW  Elec       q    Type
REMARK                         _______ _______ _______ _____ _____    ______ ____
ROOT
ATOM      1  O   HOH     1      24.460   2.152   4.927  0.00  0.00    +0.000 OA
ENDROOT
TORSDOF 0
REMARK  Name = ../refined-set-2016/1n4k/1n4k_pocket.pdb
REMARK  130 active torsions:
REMARK  status: ('A' for Active; 'I' for Inactive)
REMARK    1  A    between atoms: _1  and  _3
REMARK    2  A    between atoms: _3  and  _4
REMARK    3  A    between atoms: _3  and  _6
REMARK    4  A    between atoms: _6  and  _7
REMARK    5  A    between atoms: _7  and  _8
REMARK    6  A    between atoms: _8  and  _9
REMARK    7  A    between atoms: _18  and  _20
REMARK    8  A    between atoms: _20  and  _21
REMARK    9  A    between atoms: _20  and  _23
REMARK   10  A    between atoms: _23  and  _24
REMARK   11  A    between atoms: _27  and  _29
REMARK   12  A    between atoms: _29  and  _30
REMARK   13  A    between atoms: _29  and  _32
REMARK   14  A    between atoms: _32  and  _33
REMARK   15  A    between atoms: _36  and  _38
REMARK   16  A    between atoms: _38  and  _39
REMARK   17  A    between atoms: _41  and  _43
REMARK   18  A    between atoms: _43  and  _44
REMARK   19  A    between atoms: _43  and  _46
REMARK   20  A    between atoms: _46  and  _47
REMARK   21  A    between atoms: _47  and  _48
REMARK   22  A    between atoms: _48  and  _49
REMARK   23  A    between atoms: _58  and  _60
REMARK   24  A    between atoms: _60  and  _61
REMARK   25  A    between atoms: _60  and  _63
REMARK   26  A    between atoms: _63  and  _64
REMARK   27  A    between atoms: _64  and  _65
REMARK   28  A    between atoms: _70  and  _72
REMARK   29  A    between atoms: _72  and  _73
REMARK   30  A    between atoms: _72  and  _75
REMARK   31  A    between atoms: _75  and  _76
REMARK   32  A    between atoms: _78  and  _80
REMARK   33  A    between atoms: _80  and  _81
REMARK   34  A    between atoms: _84  and  _86
REMARK   35  A    between atoms: _86  and  _87
REMARK   36  A    between atoms: _86  and  _89
REMARK   37  A    between atoms: _89  and  _90
REMARK   38  A    between atoms: _92  and  _94
REMARK   39  A    between atoms: _94  and  _95
REMARK   40  A    between atoms: _98  and  _100
REMARK   41  A    between atoms: _100  and  _101
REMARK   42  A    between atoms: _100  and  _103
REMARK   43  A    between atoms: _103  and  _104
REMARK   44  A    between atoms: _107  and  _109
REMARK   45  A    between atoms: _109  and  _110
REMARK   46  A    between atoms: _109  and  _112
REMARK   47  A    between atoms: _112  and  _113
REMARK   48  A    between atoms: _115  and  _117
REMARK   49  A    between atoms: _117  and  _118
REMARK   50  A    between atoms: _117  and  _120
REMARK   51  A    between atoms: _120  and  _121
REMARK   52  A    between atoms: _123  and  _125
REMARK   53  A    between atoms: _125  and  _126
REMARK   54  A    between atoms: _125  and  _128
REMARK   55  A    between atoms: _128  and  _129
REMARK   56  A    between atoms: _129  and  _130
REMARK   57  A    between atoms: _130  and  _131
REMARK   58  A    between atoms: _131  and  _132
REMARK   59  A    between atoms: _136  and  _138
REMARK   60  A    between atoms: _138  and  _139
REMARK   61  A    between atoms: _138  and  _141
REMARK   62  A    between atoms: _144  and  _146
REMARK   63  A    between atoms: _146  and  _147
REMARK   64  A    between atoms: _146  and  _149
REMARK   65  A    between atoms: _149  and  _150
REMARK   66  A    between atoms: _150  and  _151
REMARK   67  A    between atoms: _151  and  _152
REMARK   68  A    between atoms: _161  and  _163
REMARK   69  A    between atoms: _163  and  _164
REMARK   70  A    between atoms: _163  and  _166
REMARK   71  A    between atoms: _166  and  _167
REMARK   72  A    between atoms: _167  and  _168
REMARK   73  A    between atoms: _171  and  _173
REMARK   74  A    between atoms: _173  and  _174
REMARK   75  A    between atoms: _173  and  _176
REMARK   76  A    between atoms: _176  and  _177
REMARK   77  A    between atoms: _177  and  _178
REMARK   78  A    between atoms: _183  and  _185
REMARK   79  A    between atoms: _185  and  _186
REMARK   80  A    between atoms: _185  and  _188
REMARK   81  A    between atoms: _188  and  _189
REMARK   82  A    between atoms: _189  and  _190
REMARK   83  A    between atoms: _190  and  _191
REMARK   84  A    between atoms: _191  and  _192
REMARK   85  A    between atoms: _196  and  _198
REMARK   86  A    between atoms: _198  and  _199
REMARK   87  A    between atoms: _198  and  _201
REMARK   88  A    between atoms: _201  and  _202
REMARK   89  A    between atoms: _205  and  _207
REMARK   90  A    between atoms: _207  and  _208
REMARK   91  A    between atoms: _207  and  _210
REMARK   92  A    between atoms: _210  and  _211
REMARK   93  A    between atoms: _211  and  _212
REMARK   94  A    between atoms: _212  and  _213
REMARK   95  A    between atoms: _222  and  _224
REMARK   96  A    between atoms: _224  and  _225
REMARK   97  A    between atoms: _224  and  _227
REMARK   98  A    between atoms: _227  and  _228
REMARK   99  A    between atoms: _228  and  _229
REMARK  100  A    between atoms: _232  and  _234
REMARK  101  A    between atoms: _234  and  _235
REMARK  102  A    between atoms: _234  and  _237
REMARK  103  A    between atoms: _237  and  _238
REMARK  104  A    between atoms: _241  and  _243
REMARK  105  A    between atoms: _243  and  _244
REMARK  106  A    between atoms: _243  and  _246
REMARK  107  A    between atoms: _246  and  _247
REMARK  108  A    between atoms: _252  and  _253
REMARK  109  A    between atoms: _255  and  _257
REMARK  110  A    between atoms: _257  and  _258
REMARK  111  A    between atoms: _257  and  _260
REMARK  112  A    between atoms: _260  and  _261
REMARK  113  A    between atoms: _261  and  _262
REMARK  114  A    between atoms: _262  and  _263
REMARK  115  A    between atoms: _272  and  _274
REMARK  116  A    between atoms: _274  and  _275
REMARK  117  A    between atoms: _274  and  _277
REMARK  118  A    between atoms: _277  and  _278
REMARK  119  A    between atoms: _278  and  _279
REMARK  120  A    between atoms: _279  and  _280
REMARK  121  A    between atoms: _280  and  _281
REMARK  122  A    between atoms: _285  and  _287
REMARK  123  A    between atoms: _287  and  _288
REMARK  124  A    between atoms: _287  and  _290
REMARK  125  A    between atoms: _290  and  _291
REMARK  126  A    between atoms: _296  and  _298
REMARK  127  A    between atoms: _298  and  _299
REMARK  128  A    between atoms: _298  and  _301
REMARK  129  A    between atoms: _301  and  _302
REMARK  130  A    between atoms: _302  and  _303
REMARK                            x       y       z     vdW  Elec       q    Type
REMARK                         _______ _______ _______ _____ _____    ______ ____
ROOT
ATOM      1  O   HOH     1      26.231  -6.584  21.570  0.00  0.00    +0.000 OA
ENDROOT
TORSDOF 0
REMARK  Name = ../refined-set-2016/1n4k/1n4k_pocket.pdb
REMARK  130 active torsions:
REMARK  status: ('A' for Active; 'I' for Inactive)
REMARK    1  A    between atoms: _1  and  _3
REMARK    2  A    between atoms: _3  and  _4
REMARK    3  A    between atoms: _3  and  _6
REMARK    4  A    between atoms: _6  and  _7
REMARK    5  A    between atoms: _7  and  _8
REMARK    6  A    between atoms: _8  and  _9
REMARK    7  A    between atoms: _18  and  _20
REMARK    8  A    between atoms: _20  and  _21
REMARK    9  A    between atoms: _20  and  _23
REMARK   10  A    between atoms: _23  and  _24
REMARK   11  A    between atoms: _27  and  _29
REMARK   12  A    between atoms: _29  and  _30
REMARK   13  A    between atoms: _29  and  _32
REMARK   14  A    between atoms: _32  and  _33
REMARK   15  A    between atoms: _36  and  _38
REMARK   16  A    between atoms: _38  and  _39
REMARK   17  A    between atoms: _41  and  _43
REMARK   18  A    between atoms: _43  and  _44
REMARK   19  A    between atoms: _43  and  _46
REMARK   20  A    between atoms: _46  and  _47
REMARK   21  A    between atoms: _47  and  _48
REMARK   22  A    between atoms: _48  and  _49
REMARK   23  A    between atoms: _58  and  _60
REMARK   24  A    between atoms: _60  and  _61
REMARK   25  A    between atoms: _60  and  _63
REMARK   26  A    between atoms: _63  and  _64
REMARK   27  A    between atoms: _64  and  _65
REMARK   28  A    between atoms: _70  and  _72
REMARK   29  A    between atoms: _72  and  _73
REMARK   30  A    between atoms: _72  and  _75
REMARK   31  A    between atoms: _75  and  _76
REMARK   32  A    between atoms: _78  and  _80
REMARK   33  A    between atoms: _80  and  _81
REMARK   34  A    between atoms: _84  and  _86
REMARK   35  A    between atoms: _86  and  _87
REMARK   36  A    between atoms: _86  and  _89
REMARK   37  A    between atoms: _89  and  _90
REMARK   38  A    between atoms: _92  and  _94
REMARK   39  A    between atoms: _94  and  _95
REMARK   40  A    between atoms: _98  and  _100
REMARK   41  A    between atoms: _100  and  _101
REMARK   42  A    between atoms: _100  and  _103
REMARK   43  A    between atoms: _103  and  _104
REMARK   44  A    between atoms: _107  and  _109
REMARK   45  A    between atoms: _109  and  _110
REMARK   46  A    between atoms: _109  and  _112
REMARK   47  A    between atoms: _112  and  _113
REMARK   48  A    between atoms: _115  and  _117
REMARK   49  A    between atoms: _117  and  _118
REMARK   50  A    between atoms: _117  and  _120
REMARK   51  A    between atoms: _120  and  _121
REMARK   52  A    between atoms: _123  and  _125
REMARK   53  A    between atoms: _125  and  _126
REMARK   54  A    between atoms: _125  and  _128
REMARK   55  A    between atoms: _128  and  _129
REMARK   56  A    between atoms: _129  and  _130
REMARK   57  A    between atoms: _130  and  _131
REMARK   58  A    between atoms: _131  and  _132
REMARK   59  A    between atoms: _136  and  _138
REMARK   60  A    between atoms: _138  and  _139
REMARK   61  A    between atoms: _138  and  _141
REMARK   62  A    between atoms: _144  and  _146
REMARK   63  A    between atoms: _146  and  _147
REMARK   64  A    between atoms: _146  and  _149
REMARK   65  A    between atoms: _149  and  _150
REMARK   66  A    between atoms: _150  and  _151
REMARK   67  A    between atoms: _151  and  _152
REMARK   68  A    between atoms: _161  and  _163
REMARK   69  A    between atoms: _163  and  _164
REMARK   70  A    between atoms: _163  and  _166
REMARK   71  A    between atoms: _166  and  _167
REMARK   72  A    between atoms: _167  and  _168
REMARK   73  A    between atoms: _171  and  _173
REMARK   74  A    between atoms: _173  and  _174
REMARK   75  A    between atoms: _173  and  _176
REMARK   76  A    between atoms: _176  and  _177
REMARK   77  A    between atoms: _177  and  _178
REMARK   78  A    between atoms: _183  and  _185
REMARK   79  A    between atoms: _185  and  _186
REMARK   80  A    between atoms: _185  and  _188
REMARK   81  A    between atoms: _188  and  _189
REMARK   82  A    between atoms: _189  and  _190
REMARK   83  A    between atoms: _190  and  _191
REMARK   84  A    between atoms: _191  and  _192
REMARK   85  A    between atoms: _196  and  _198
REMARK   86  A    between atoms: _198  and  _199
REMARK   87  A    between atoms: _198  and  _201
REMARK   88  A    between atoms: _201  and  _202
REMARK   89  A    between atoms: _205  and  _207
REMARK   90  A    between atoms: _207  and  _208
REMARK   91  A    between atoms: _207  and  _210
REMARK   92  A    between atoms: _210  and  _211
REMARK   93  A    between atoms: _211  and  _212
REMARK   94  A    between atoms: _212  and  _213
REMARK   95  A    between atoms: _222  and  _224
REMARK   96  A    between atoms: _224  and  _225
REMARK   97  A    between atoms: _224  and  _227
REMARK   98  A    between atoms: _227  and  _228
REMARK   99  A    between atoms: _228  and  _229
REMARK  100  A    between atoms: _232  and  _234
REMARK  101  A    between atoms: _234  and  _235
REMARK  102  A    between atoms: _234  and  _237
REMARK  103  A    between atoms: _237  and  _238
REMARK  104  A    between atoms: _241  and  _243
REMARK  105  A    between atoms: _243  and  _244
REMARK  106  A    between atoms: _243  and  _246
REMARK  107  A    between atoms: _246  and  _247
REMARK  108  A    between atoms: _252  and  _253
REMARK  109  A    between atoms: _255  and  _257
REMARK  110  A    between atoms: _257  and  _258
REMARK  111  A    between atoms: _257  and  _260
REMARK  112  A    between atoms: _260  and  _261
REMARK  113  A    between atoms: _261  and  _262
REMARK  114  A    between atoms: _262  and  _263
REMARK  115  A    between atoms: _272  and  _274
REMARK  116  A    between atoms: _274  and  _275
REMARK  117  A    between atoms: _274  and  _277
REMARK  118  A    between atoms: _277  and  _278
REMARK  119  A    between atoms: _278  and  _279
REMARK  120  A    between atoms: _279  and  _280
REMARK  121  A    between atoms: _280  and  _281
REMARK  122  A    between atoms: _285  and  _287
REMARK  123  A    between atoms: _287  and  _288
REMARK  124  A    between atoms: _287  and  _290
REMARK  125  A    between atoms: _290  and  _291
REMARK  126  A    between atoms: _296  and  _298
REMARK  127  A    between atoms: _298  and  _299
REMARK  128  A    between atoms: _298  and  _301
REMARK  129  A    between atoms: _301  and  _302
REMARK  130  A    between atoms: _302  and  _303
REMARK                            x       y       z     vdW  Elec       q    Type
REMARK                         _______ _______ _______ _____ _____    ______ ____
ROOT
ATOM      1  O   HOH     1      18.092   1.070  16.708  0.00  0.00    +0.000 OA
ENDROOT
TORSDOF 0
REMARK  Name = ../refined-set-2016/1n4k/1n4k_pocket.pdb
REMARK  130 active torsions:
REMARK  status: ('A' for Active; 'I' for Inactive)
REMARK    1  A    between atoms: _1  and  _3
REMARK    2  A    between atoms: _3  and  _4
REMARK    3  A    between atoms: _3  and  _6
REMARK    4  A    between atoms: _6  and  _7
REMARK    5  A    between atoms: _7  and  _8
REMARK    6  A    between atoms: _8  and  _9
REMARK    7  A    between atoms: _18  and  _20
REMARK    8  A    between atoms: _20  and  _21
REMARK    9  A    between atoms: _20  and  _23
REMARK   10  A    between atoms: _23  and  _24
REMARK   11  A    between atoms: _27  and  _29
REMARK   12  A    between atoms: _29  and  _30
REMARK   13  A    between atoms: _29  and  _32
REMARK   14  A    between atoms: _32  and  _33
REMARK   15  A    between atoms: _36  and  _38
REMARK   16  A    between atoms: _38  and  _39
REMARK   17  A    between atoms: _41  and  _43
REMARK   18  A    between atoms: _43  and  _44
REMARK   19  A    between atoms: _43  and  _46
REMARK   20  A    between atoms: _46  and  _47
REMARK   21  A    between atoms: _47  and  _48
REMARK   22  A    between atoms: _48  and  _49
REMARK   23  A    between atoms: _58  and  _60
REMARK   24  A    between atoms: _60  and  _61
REMARK   25  A    between atoms: _60  and  _63
REMARK   26  A    between atoms: _63  and  _64
REMARK   27  A    between atoms: _64  and  _65
REMARK   28  A    between atoms: _70  and  _72
REMARK   29  A    between atoms: _72  and  _73
REMARK   30  A    between atoms: _72  and  _75
REMARK   31  A    between atoms: _75  and  _76
REMARK   32  A    between atoms: _78  and  _80
REMARK   33  A    between atoms: _80  and  _81
REMARK   34  A    between atoms: _84  and  _86
REMARK   35  A    between atoms: _86  and  _87
REMARK   36  A    between atoms: _86  and  _89
REMARK   37  A    between atoms: _89  and  _90
REMARK   38  A    between atoms: _92  and  _94
REMARK   39  A    between atoms: _94  and  _95
REMARK   40  A    between atoms: _98  and  _100
REMARK   41  A    between atoms: _100  and  _101
REMARK   42  A    between atoms: _100  and  _103
REMARK   43  A    between atoms: _103  and  _104
REMARK   44  A    between atoms: _107  and  _109
REMARK   45  A    between atoms: _109  and  _110
REMARK   46  A    between atoms: _109  and  _112
REMARK   47  A    between atoms: _112  and  _113
REMARK   48  A    between atoms: _115  and  _117
REMARK   49  A    between atoms: _117  and  _118
REMARK   50  A    between atoms: _117  and  _120
REMARK   51  A    between atoms: _120  and  _121
REMARK   52  A    between atoms: _123  and  _125
REMARK   53  A    between atoms: _125  and  _126
REMARK   54  A    between atoms: _125  and  _128
REMARK   55  A    between atoms: _128  and  _129
REMARK   56  A    between atoms: _129  and  _130
REMARK   57  A    between atoms: _130  and  _131
REMARK   58  A    between atoms: _131  and  _132
REMARK   59  A    between atoms: _136  and  _138
REMARK   60  A    between atoms: _138  and  _139
REMARK   61  A    between atoms: _138  and  _141
REMARK   62  A    between atoms: _144  and  _146
REMARK   63  A    between atoms: _146  and  _147
REMARK   64  A    between atoms: _146  and  _149
REMARK   65  A    between atoms: _149  and  _150
REMARK   66  A    between atoms: _150  and  _151
REMARK   67  A    between atoms: _151  and  _152
REMARK   68  A    between atoms: _161  and  _163
REMARK   69  A    between atoms: _163  and  _164
REMARK   70  A    between atoms: _163  and  _166
REMARK   71  A    between atoms: _166  and  _167
REMARK   72  A    between atoms: _167  and  _168
REMARK   73  A    between atoms: _171  and  _173
REMARK   74  A    between atoms: _173  and  _174
REMARK   75  A    between atoms: _173  and  _176
REMARK   76  A    between atoms: _176  and  _177
REMARK   77  A    between atoms: _177  and  _178
REMARK   78  A    between atoms: _183  and  _185
REMARK   79  A    between atoms: _185  and  _186
REMARK   80  A    between atoms: _185  and  _188
REMARK   81  A    between atoms: _188  and  _189
REMARK   82  A    between atoms: _189  and  _190
REMARK   83  A    between atoms: _190  and  _191
REMARK   84  A    between atoms: _191  and  _192
REMARK   85  A    between atoms: _196  and  _198
REMARK   86  A    between atoms: _198  and  _199
REMARK   87  A    between atoms: _198  and  _201
REMARK   88  A    between atoms: _201  and  _202
REMARK   89  A    between atoms: _205  and  _207
REMARK   90  A    between atoms: _207  and  _208
REMARK   91  A    between atoms: _207  and  _210
REMARK   92  A    between atoms: _210  and  _211
REMARK   93  A    between atoms: _211  and  _212
REMARK   94  A    between atoms: _212  and  _213
REMARK   95  A    between atoms: _222  and  _224
REMARK   96  A    between atoms: _224  and  _225
REMARK   97  A    between atoms: _224  and  _227
REMARK   98  A    between atoms: _227  and  _228
REMARK   99  A    between atoms: _228  and  _229
REMARK  100  A    between atoms: _232  and  _234
REMARK  101  A    between atoms: _234  and  _235
REMARK  102  A    between atoms: _234  and  _237
REMARK  103  A    between atoms: _237  and  _238
REMARK  104  A    between atoms: _241  and  _243
REMARK  105  A    between atoms: _243  and  _244
REMARK  106  A    between atoms: _243  and  _246
REMARK  107  A    between atoms: _246  and  _247
REMARK  108  A    between atoms: _252  and  _253
REMARK  109  A    between atoms: _255  and  _257
REMARK  110  A    between atoms: _257  and  _258
REMARK  111  A    between atoms: _257  and  _260
REMARK  112  A    between atoms: _260  and  _261
REMARK  113  A    between atoms: _261  and  _262
REMARK  114  A    between atoms: _262  and  _263
REMARK  115  A    between atoms: _272  and  _274
REMARK  116  A    between atoms: _274  and  _275
REMARK  117  A    between atoms: _274  and  _277
REMARK  118  A    between atoms: _277  and  _278
REMARK  119  A    between atoms: _278  and  _279
REMARK  120  A    between atoms: _279  and  _280
REMARK  121  A    between atoms: _280  and  _281
REMARK  122  A    between atoms: _285  and  _287
REMARK  123  A    between atoms: _287  and  _288
REMARK  124  A    between atoms: _287  and  _290
REMARK  125  A    between atoms: _290  and  _291
REMARK  126  A    between atoms: _296  and  _298
REMARK  127  A    between atoms: _298  and  _299
REMARK  128  A    between atoms: _298  and  _301
REMARK  129  A    between atoms: _301  and  _302
REMARK  130  A    between atoms: _302  and  _303
REMARK                            x       y       z     vdW  Elec       q    Type
REMARK                         _______ _______ _______ _____ _____    ______ ____
ROOT
ATOM      1  O   HOH     1      23.330  -2.788  21.314  0.00  0.00    +0.000 OA
ENDROOT
TORSDOF 0
REMARK  Name = ../refined-set-2016/1n4k/1n4k_pocket.pdb
REMARK  130 active torsions:
REMARK  status: ('A' for Active; 'I' for Inactive)
REMARK    1  A    between atoms: _1  and  _3
REMARK    2  A    between atoms: _3  and  _4
REMARK    3  A    between atoms: _3  and  _6
REMARK    4  A    between atoms: _6  and  _7
REMARK    5  A    between atoms: _7  and  _8
REMARK    6  A    between atoms: _8  and  _9
REMARK    7  A    between atoms: _18  and  _20
REMARK    8  A    between atoms: _20  and  _21
REMARK    9  A    between atoms: _20  and  _23
REMARK   10  A    between atoms: _23  and  _24
REMARK   11  A    between atoms: _27  and  _29
REMARK   12  A    between atoms: _29  and  _30
REMARK   13  A    between atoms: _29  and  _32
REMARK   14  A    between atoms: _32  and  _33
REMARK   15  A    between atoms: _36  and  _38
REMARK   16  A    between atoms: _38  and  _39
REMARK   17  A    between atoms: _41  and  _43
REMARK   18  A    between atoms: _43  and  _44
REMARK   19  A    between atoms: _43  and  _46
REMARK   20  A    between atoms: _46  and  _47
REMARK   21  A    between atoms: _47  and  _48
REMARK   22  A    between atoms: _48  and  _49
REMARK   23  A    between atoms: _58  and  _60
REMARK   24  A    between atoms: _60  and  _61
REMARK   25  A    between atoms: _60  and  _63
REMARK   26  A    between atoms: _63  and  _64
REMARK   27  A    between atoms: _64  and  _65
REMARK   28  A    between atoms: _70  and  _72
REMARK   29  A    between atoms: _72  and  _73
REMARK   30  A    between atoms: _72  and  _75
REMARK   31  A    between atoms: _75  and  _76
REMARK   32  A    between atoms: _78  and  _80
REMARK   33  A    between atoms: _80  and  _81
REMARK   34  A    between atoms: _84  and  _86
REMARK   35  A    between atoms: _86  and  _87
REMARK   36  A    between atoms: _86  and  _89
REMARK   37  A    between atoms: _89  and  _90
REMARK   38  A    between atoms: _92  and  _94
REMARK   39  A    between atoms: _94  and  _95
REMARK   40  A    between atoms: _98  and  _100
REMARK   41  A    between atoms: _100  and  _101
REMARK   42  A    between atoms: _100  and  _103
REMARK   43  A    between atoms: _103  and  _104
REMARK   44  A    between atoms: _107  and  _109
REMARK   45  A    between atoms: _109  and  _110
REMARK   46  A    between atoms: _109  and  _112
REMARK   47  A    between atoms: _112  and  _113
REMARK   48  A    between atoms: _115  and  _117
REMARK   49  A    between atoms: _117  and  _118
REMARK   50  A    between atoms: _117  and  _120
REMARK   51  A    between atoms: _120  and  _121
REMARK   52  A    between atoms: _123  and  _125
REMARK   53  A    between atoms: _125  and  _126
REMARK   54  A    between atoms: _125  and  _128
REMARK   55  A    between atoms: _128  and  _129
REMARK   56  A    between atoms: _129  and  _130
REMARK   57  A    between atoms: _130  and  _131
REMARK   58  A    between atoms: _131  and  _132
REMARK   59  A    between atoms: _136  and  _138
REMARK   60  A    between atoms: _138  and  _139
REMARK   61  A    between atoms: _138  and  _141
REMARK   62  A    between atoms: _144  and  _146
REMARK   63  A    between atoms: _146  and  _147
REMARK   64  A    between atoms: _146  and  _149
REMARK   65  A    between atoms: _149  and  _150
REMARK   66  A    between atoms: _150  and  _151
REMARK   67  A    between atoms: _151  and  _152
REMARK   68  A    between atoms: _161  and  _163
REMARK   69  A    between atoms: _163  and  _164
REMARK   70  A    between atoms: _163  and  _166
REMARK   71  A    between atoms: _166  and  _167
REMARK   72  A    between atoms: _167  and  _168
REMARK   73  A    between atoms: _171  and  _173
REMARK   74  A    between atoms: _173  and  _174
REMARK   75  A    between atoms: _173  and  _176
REMARK   76  A    between atoms: _176  and  _177
REMARK   77  A    between atoms: _177  and  _178
REMARK   78  A    between atoms: _183  and  _185
REMARK   79  A    between atoms: _185  and  _186
REMARK   80  A    between atoms: _185  and  _188
REMARK   81  A    between atoms: _188  and  _189
REMARK   82  A    between atoms: _189  and  _190
REMARK   83  A    between atoms: _190  and  _191
REMARK   84  A    between atoms: _191  and  _192
REMARK   85  A    between atoms: _196  and  _198
REMARK   86  A    between atoms: _198  and  _199
REMARK   87  A    between atoms: _198  and  _201
REMARK   88  A    between atoms: _201  and  _202
REMARK   89  A    between atoms: _205  and  _207
REMARK   90  A    between atoms: _207  and  _208
REMARK   91  A    between atoms: _207  and  _210
REMARK   92  A    between atoms: _210  and  _211
REMARK   93  A    between atoms: _211  and  _212
REMARK   94  A    between atoms: _212  and  _213
REMARK   95  A    between atoms: _222  and  _224
REMARK   96  A    between atoms: _224  and  _225
REMARK   97  A    between atoms: _224  and  _227
REMARK   98  A    between atoms: _227  and  _228
REMARK   99  A    between atoms: _228  and  _229
REMARK  100  A    between atoms: _232  and  _234
REMARK  101  A    between atoms: _234  and  _235
REMARK  102  A    between atoms: _234  and  _237
REMARK  103  A    between atoms: _237  and  _238
REMARK  104  A    between atoms: _241  and  _243
REMARK  105  A    between atoms: _243  and  _244
REMARK  106  A    between atoms: _243  and  _246
REMARK  107  A    between atoms: _246  and  _247
REMARK  108  A    between atoms: _252  and  _253
REMARK  109  A    between atoms: _255  and  _257
REMARK  110  A    between atoms: _257  and  _258
REMARK  111  A    between atoms: _257  and  _260
REMARK  112  A    between atoms: _260  and  _261
REMARK  113  A    between atoms: _261  and  _262
REMARK  114  A    between atoms: _262  and  _263
REMARK  115  A    between atoms: _272  and  _274
REMARK  116  A    between atoms: _274  and  _275
REMARK  117  A    between atoms: _274  and  _277
REMARK  118  A    between atoms: _277  and  _278
REMARK  119  A    between atoms: _278  and  _279
REMARK  120  A    between atoms: _279  and  _280
REMARK  121  A    between atoms: _280  and  _281
REMARK  122  A    between atoms: _285  and  _287
REMARK  123  A    between atoms: _287  and  _288
REMARK  124  A    between atoms: _287  and  _290
REMARK  125  A    between atoms: _290  and  _291
REMARK  126  A    between atoms: _296  and  _298
REMARK  127  A    between atoms: _298  and  _299
REMARK  128  A    between atoms: _298  and  _301
REMARK  129  A    between atoms: _301  and  _302
REMARK  130  A    between atoms: _302  and  _303
REMARK                            x       y       z     vdW  Elec       q    Type
REMARK                         _______ _______ _______ _____ _____    ______ ____
ROOT
ATOM      1  O   HOH     1      22.661   1.121   8.166  0.00  0.00    +0.000 OA
ENDROOT
TORSDOF 0
REMARK  Name = ../refined-set-2016/1n4k/1n4k_pocket.pdb
REMARK  130 active torsions:
REMARK  status: ('A' for Active; 'I' for Inactive)
REMARK    1  A    between atoms: _1  and  _3
REMARK    2  A    between atoms: _3  and  _4
REMARK    3  A    between atoms: _3  and  _6
REMARK    4  A    between atoms: _6  and  _7
REMARK    5  A    between atoms: _7  and  _8
REMARK    6  A    between atoms: _8  and  _9
REMARK    7  A    between atoms: _18  and  _20
REMARK    8  A    between atoms: _20  and  _21
REMARK    9  A    between atoms: _20  and  _23
REMARK   10  A    between atoms: _23  and  _24
REMARK   11  A    between atoms: _27  and  _29
REMARK   12  A    between atoms: _29  and  _30
REMARK   13  A    between atoms: _29  and  _32
REMARK   14  A    between atoms: _32  and  _33
REMARK   15  A    between atoms: _36  and  _38
REMARK   16  A    between atoms: _38  and  _39
REMARK   17  A    between atoms: _41  and  _43
REMARK   18  A    between atoms: _43  and  _44
REMARK   19  A    between atoms: _43  and  _46
REMARK   20  A    between atoms: _46  and  _47
REMARK   21  A    between atoms: _47  and  _48
REMARK   22  A    between atoms: _48  and  _49
REMARK   23  A    between atoms: _58  and  _60
REMARK   24  A    between atoms: _60  and  _61
REMARK   25  A    between atoms: _60  and  _63
REMARK   26  A    between atoms: _63  and  _64
REMARK   27  A    between atoms: _64  and  _65
REMARK   28  A    between atoms: _70  and  _72
REMARK   29  A    between atoms: _72  and  _73
REMARK   30  A    between atoms: _72  and  _75
REMARK   31  A    between atoms: _75  and  _76
REMARK   32  A    between atoms: _78  and  _80
REMARK   33  A    between atoms: _80  and  _81
REMARK   34  A    between atoms: _84  and  _86
REMARK   35  A    between atoms: _86  and  _87
REMARK   36  A    between atoms: _86  and  _89
REMARK   37  A    between atoms: _89  and  _90
REMARK   38  A    between atoms: _92  and  _94
REMARK   39  A    between atoms: _94  and  _95
REMARK   40  A    between atoms: _98  and  _100
REMARK   41  A    between atoms: _100  and  _101
REMARK   42  A    between atoms: _100  and  _103
REMARK   43  A    between atoms: _103  and  _104
REMARK   44  A    between atoms: _107  and  _109
REMARK   45  A    between atoms: _109  and  _110
REMARK   46  A    between atoms: _109  and  _112
REMARK   47  A    between atoms: _112  and  _113
REMARK   48  A    between atoms: _115  and  _117
REMARK   49  A    between atoms: _117  and  _118
REMARK   50  A    between atoms: _117  and  _120
REMARK   51  A    between atoms: _120  and  _121
REMARK   52  A    between atoms: _123  and  _125
REMARK   53  A    between atoms: _125  and  _126
REMARK   54  A    between atoms: _125  and  _128
REMARK   55  A    between atoms: _128  and  _129
REMARK   56  A    between atoms: _129  and  _130
REMARK   57  A    between atoms: _130  and  _131
REMARK   58  A    between atoms: _131  and  _132
REMARK   59  A    between atoms: _136  and  _138
REMARK   60  A    between atoms: _138  and  _139
REMARK   61  A    between atoms: _138  and  _141
REMARK   62  A    between atoms: _144  and  _146
REMARK   63  A    between atoms: _146  and  _147
REMARK   64  A    between atoms: _146  and  _149
REMARK   65  A    between atoms: _149  and  _150
REMARK   66  A    between atoms: _150  and  _151
REMARK   67  A    between atoms: _151  and  _152
REMARK   68  A    between atoms: _161  and  _163
REMARK   69  A    between atoms: _163  and  _164
REMARK   70  A    between atoms: _163  and  _166
REMARK   71  A    between atoms: _166  and  _167
REMARK   72  A    between atoms: _167  and  _168
REMARK   73  A    between atoms: _171  and  _173
REMARK   74  A    between atoms: _173  and  _174
REMARK   75  A    between atoms: _173  and  _176
REMARK   76  A    between atoms: _176  and  _177
REMARK   77  A    between atoms: _177  and  _178
REMARK   78  A    between atoms: _183  and  _185
REMARK   79  A    between atoms: _185  and  _186
REMARK   80  A    between atoms: _185  and  _188
REMARK   81  A    between atoms: _188  and  _189
REMARK   82  A    between atoms: _189  and  _190
REMARK   83  A    between atoms: _190  and  _191
REMARK   84  A    between atoms: _191  and  _192
REMARK   85  A    between atoms: _196  and  _198
REMARK   86  A    between atoms: _198  and  _199
REMARK   87  A    between atoms: _198  and  _201
REMARK   88  A    between atoms: _201  and  _202
REMARK   89  A    between atoms: _205  and  _207
REMARK   90  A    between atoms: _207  and  _208
REMARK   91  A    between atoms: _207  and  _210
REMARK   92  A    between atoms: _210  and  _211
REMARK   93  A    between atoms: _211  and  _212
REMARK   94  A    between atoms: _212  and  _213
REMARK   95  A    between atoms: _222  and  _224
REMARK   96  A    between atoms: _224  and  _225
REMARK   97  A    between atoms: _224  and  _227
REMARK   98  A    between atoms: _227  and  _228
REMARK   99  A    between atoms: _228  and  _229
REMARK  100  A    between atoms: _232  and  _234
REMARK  101  A    between atoms: _234  and  _235
REMARK  102  A    between atoms: _234  and  _237
REMARK  103  A    between atoms: _237  and  _238
REMARK  104  A    between atoms: _241  and  _243
REMARK  105  A    between atoms: _243  and  _244
REMARK  106  A    between atoms: _243  and  _246
REMARK  107  A    between atoms: _246  and  _247
REMARK  108  A    between atoms: _252  and  _253
REMARK  109  A    between atoms: _255  and  _257
REMARK  110  A    between atoms: _257  and  _258
REMARK  111  A    between atoms: _257  and  _260
REMARK  112  A    between atoms: _260  and  _261
REMARK  113  A    between atoms: _261  and  _262
REMARK  114  A    between atoms: _262  and  _263
REMARK  115  A    between atoms: _272  and  _274
REMARK  116  A    between atoms: _274  and  _275
REMARK  117  A    between atoms: _274  and  _277
REMARK  118  A    between atoms: _277  and  _278
REMARK  119  A    between atoms: _278  and  _279
REMARK  120  A    between atoms: _279  and  _280
REMARK  121  A    between atoms: _280  and  _281
REMARK  122  A    between atoms: _285  and  _287
REMARK  123  A    between atoms: _287  and  _288
REMARK  124  A    between atoms: _287  and  _290
REMARK  125  A    between atoms: _290  and  _291
REMARK  126  A    between atoms: _296  and  _298
REMARK  127  A    between atoms: _298  and  _299
REMARK  128  A    between atoms: _298  and  _301
REMARK  129  A    between atoms: _301  and  _302
REMARK  130  A    between atoms: _302  and  _303
REMARK                            x       y       z     vdW  Elec       q    Type
REMARK                         _______ _______ _______ _____ _____    ______ ____
ROOT
ATOM      1  O   HOH     1      27.534   1.566  16.728  0.00  0.00    +0.000 OA
ENDROOT
TORSDOF 0
REMARK  Name = ../refined-set-2016/1n4k/1n4k_pocket.pdb
REMARK  130 active torsions:
REMARK  status: ('A' for Active; 'I' for Inactive)
REMARK    1  A    between atoms: _1  and  _3
REMARK    2  A    between atoms: _3  and  _4
REMARK    3  A    between atoms: _3  and  _6
REMARK    4  A    between atoms: _6  and  _7
REMARK    5  A    between atoms: _7  and  _8
REMARK    6  A    between atoms: _8  and  _9
REMARK    7  A    between atoms: _18  and  _20
REMARK    8  A    between atoms: _20  and  _21
REMARK    9  A    between atoms: _20  and  _23
REMARK   10  A    between atoms: _23  and  _24
REMARK   11  A    between atoms: _27  and  _29
REMARK   12  A    between atoms: _29  and  _30
REMARK   13  A    between atoms: _29  and  _32
REMARK   14  A    between atoms: _32  and  _33
REMARK   15  A    between atoms: _36  and  _38
REMARK   16  A    between atoms: _38  and  _39
REMARK   17  A    between atoms: _41  and  _43
REMARK   18  A    between atoms: _43  and  _44
REMARK   19  A    between atoms: _43  and  _46
REMARK   20  A    between atoms: _46  and  _47
REMARK   21  A    between atoms: _47  and  _48
REMARK   22  A    between atoms: _48  and  _49
REMARK   23  A    between atoms: _58  and  _60
REMARK   24  A    between atoms: _60  and  _61
REMARK   25  A    between atoms: _60  and  _63
REMARK   26  A    between atoms: _63  and  _64
REMARK   27  A    between atoms: _64  and  _65
REMARK   28  A    between atoms: _70  and  _72
REMARK   29  A    between atoms: _72  and  _73
REMARK   30  A    between atoms: _72  and  _75
REMARK   31  A    between atoms: _75  and  _76
REMARK   32  A    between atoms: _78  and  _80
REMARK   33  A    between atoms: _80  and  _81
REMARK   34  A    between atoms: _84  and  _86
REMARK   35  A    between atoms: _86  and  _87
REMARK   36  A    between atoms: _86  and  _89
REMARK   37  A    between atoms: _89  and  _90
REMARK   38  A    between atoms: _92  and  _94
REMARK   39  A    between atoms: _94  and  _95
REMARK   40  A    between atoms: _98  and  _100
REMARK   41  A    between atoms: _100  and  _101
REMARK   42  A    between atoms: _100  and  _103
REMARK   43  A    between atoms: _103  and  _104
REMARK   44  A    between atoms: _107  and  _109
REMARK   45  A    between atoms: _109  and  _110
REMARK   46  A    between atoms: _109  and  _112
REMARK   47  A    between atoms: _112  and  _113
REMARK   48  A    between atoms: _115  and  _117
REMARK   49  A    between atoms: _117  and  _118
REMARK   50  A    between atoms: _117  and  _120
REMARK   51  A    between atoms: _120  and  _121
REMARK   52  A    between atoms: _123  and  _125
REMARK   53  A    between atoms: _125  and  _126
REMARK   54  A    between atoms: _125  and  _128
REMARK   55  A    between atoms: _128  and  _129
REMARK   56  A    between atoms: _129  and  _130
REMARK   57  A    between atoms: _130  and  _131
REMARK   58  A    between atoms: _131  and  _132
REMARK   59  A    between atoms: _136  and  _138
REMARK   60  A    between atoms: _138  and  _139
REMARK   61  A    between atoms: _138  and  _141
REMARK   62  A    between atoms: _144  and  _146
REMARK   63  A    between atoms: _146  and  _147
REMARK   64  A    between atoms: _146  and  _149
REMARK   65  A    between atoms: _149  and  _150
REMARK   66  A    between atoms: _150  and  _151
REMARK   67  A    between atoms: _151  and  _152
REMARK   68  A    between atoms: _161  and  _163
REMARK   69  A    between atoms: _163  and  _164
REMARK   70  A    between atoms: _163  and  _166
REMARK   71  A    between atoms: _166  and  _167
REMARK   72  A    between atoms: _167  and  _168
REMARK   73  A    between atoms: _171  and  _173
REMARK   74  A    between atoms: _173  and  _174
REMARK   75  A    between atoms: _173  and  _176
REMARK   76  A    between atoms: _176  and  _177
REMARK   77  A    between atoms: _177  and  _178
REMARK   78  A    between atoms: _183  and  _185
REMARK   79  A    between atoms: _185  and  _186
REMARK   80  A    between atoms: _185  and  _188
REMARK   81  A    between atoms: _188  and  _189
REMARK   82  A    between atoms: _189  and  _190
REMARK   83  A    between atoms: _190  and  _191
REMARK   84  A    between atoms: _191  and  _192
REMARK   85  A    between atoms: _196  and  _198
REMARK   86  A    between atoms: _198  and  _199
REMARK   87  A    between atoms: _198  and  _201
REMARK   88  A    between atoms: _201  and  _202
REMARK   89  A    between atoms: _205  and  _207
REMARK   90  A    between atoms: _207  and  _208
REMARK   91  A    between atoms: _207  and  _210
REMARK   92  A    between atoms: _210  and  _211
REMARK   93  A    between atoms: _211  and  _212
REMARK   94  A    between atoms: _212  and  _213
REMARK   95  A    between atoms: _222  and  _224
REMARK   96  A    between atoms: _224  and  _225
REMARK   97  A    between atoms: _224  and  _227
REMARK   98  A    between atoms: _227  and  _228
REMARK   99  A    between atoms: _228  and  _229
REMARK  100  A    between atoms: _232  and  _234
REMARK  101  A    between atoms: _234  and  _235
REMARK  102  A    between atoms: _234  and  _237
REMARK  103  A    between atoms: _237  and  _238
REMARK  104  A    between atoms: _241  and  _243
REMARK  105  A    between atoms: _243  and  _244
REMARK  106  A    between atoms: _243  and  _246
REMARK  107  A    between atoms: _246  and  _247
REMARK  108  A    between atoms: _252  and  _253
REMARK  109  A    between atoms: _255  and  _257
REMARK  110  A    between atoms: _257  and  _258
REMARK  111  A    between atoms: _257  and  _260
REMARK  112  A    between atoms: _260  and  _261
REMARK  113  A    between atoms: _261  and  _262
REMARK  114  A    between atoms: _262  and  _263
REMARK  115  A    between atoms: _272  and  _274
REMARK  116  A    between atoms: _274  and  _275
REMARK  117  A    between atoms: _274  and  _277
REMARK  118  A    between atoms: _277  and  _278
REMARK  119  A    between atoms: _278  and  _279
REMARK  120  A    between atoms: _279  and  _280
REMARK  121  A    between atoms: _280  and  _281
REMARK  122  A    between atoms: _285  and  _287
REMARK  123  A    between atoms: _287  and  _288
REMARK  124  A    between atoms: _287  and  _290
REMARK  125  A    between atoms: _290  and  _291
REMARK  126  A    between atoms: _296  and  _298
REMARK  127  A    between atoms: _298  and  _299
REMARK  128  A    between atoms: _298  and  _301
REMARK  129  A    between atoms: _301  and  _302
REMARK  130  A    between atoms: _302  and  _303
REMARK                            x       y       z     vdW  Elec       q    Type
REMARK                         _______ _______ _______ _____ _____    ______ ____
ROOT
ATOM      1  O   HOH     1      24.435  -1.638  16.843  0.00  0.00    +0.000 OA
ENDROOT
TORSDOF 0
REMARK  Name = ../refined-set-2016/1n4k/1n4k_pocket.pdb
REMARK  130 active torsions:
REMARK  status: ('A' for Active; 'I' for Inactive)
REMARK    1  A    between atoms: _1  and  _3
REMARK    2  A    between atoms: _3  and  _4
REMARK    3  A    between atoms: _3  and  _6
REMARK    4  A    between atoms: _6  and  _7
REMARK    5  A    between atoms: _7  and  _8
REMARK    6  A    between atoms: _8  and  _9
REMARK    7  A    between atoms: _18  and  _20
REMARK    8  A    between atoms: _20  and  _21
REMARK    9  A    between atoms: _20  and  _23
REMARK   10  A    between atoms: _23  and  _24
REMARK   11  A    between atoms: _27  and  _29
REMARK   12  A    between atoms: _29  and  _30
REMARK   13  A    between atoms: _29  and  _32
REMARK   14  A    between atoms: _32  and  _33
REMARK   15  A    between atoms: _36  and  _38
REMARK   16  A    between atoms: _38  and  _39
REMARK   17  A    between atoms: _41  and  _43
REMARK   18  A    between atoms: _43  and  _44
REMARK   19  A    between atoms: _43  and  _46
REMARK   20  A    between atoms: _46  and  _47
REMARK   21  A    between atoms: _47  and  _48
REMARK   22  A    between atoms: _48  and  _49
REMARK   23  A    between atoms: _58  and  _60
REMARK   24  A    between atoms: _60  and  _61
REMARK   25  A    between atoms: _60  and  _63
REMARK   26  A    between atoms: _63  and  _64
REMARK   27  A    between atoms: _64  and  _65
REMARK   28  A    between atoms: _70  and  _72
REMARK   29  A    between atoms: _72  and  _73
REMARK   30  A    between atoms: _72  and  _75
REMARK   31  A    between atoms: _75  and  _76
REMARK   32  A    between atoms: _78  and  _80
REMARK   33  A    between atoms: _80  and  _81
REMARK   34  A    between atoms: _84  and  _86
REMARK   35  A    between atoms: _86  and  _87
REMARK   36  A    between atoms: _86  and  _89
REMARK   37  A    between atoms: _89  and  _90
REMARK   38  A    between atoms: _92  and  _94
REMARK   39  A    between atoms: _94  and  _95
REMARK   40  A    between atoms: _98  and  _100
REMARK   41  A    between atoms: _100  and  _101
REMARK   42  A    between atoms: _100  and  _103
REMARK   43  A    between atoms: _103  and  _104
REMARK   44  A    between atoms: _107  and  _109
REMARK   45  A    between atoms: _109  and  _110
REMARK   46  A    between atoms: _109  and  _112
REMARK   47  A    between atoms: _112  and  _113
REMARK   48  A    between atoms: _115  and  _117
REMARK   49  A    between atoms: _117  and  _118
REMARK   50  A    between atoms: _117  and  _120
REMARK   51  A    between atoms: _120  and  _121
REMARK   52  A    between atoms: _123  and  _125
REMARK   53  A    between atoms: _125  and  _126
REMARK   54  A    between atoms: _125  and  _128
REMARK   55  A    between atoms: _128  and  _129
REMARK   56  A    between atoms: _129  and  _130
REMARK   57  A    between atoms: _130  and  _131
REMARK   58  A    between atoms: _131  and  _132
REMARK   59  A    between atoms: _136  and  _138
REMARK   60  A    between atoms: _138  and  _139
REMARK   61  A    between atoms: _138  and  _141
REMARK   62  A    between atoms: _144  and  _146
REMARK   63  A    between atoms: _146  and  _147
REMARK   64  A    between atoms: _146  and  _149
REMARK   65  A    between atoms: _149  and  _150
REMARK   66  A    between atoms: _150  and  _151
REMARK   67  A    between atoms: _151  and  _152
REMARK   68  A    between atoms: _161  and  _163
REMARK   69  A    between atoms: _163  and  _164
REMARK   70  A    between atoms: _163  and  _166
REMARK   71  A    between atoms: _166  and  _167
REMARK   72  A    between atoms: _167  and  _168
REMARK   73  A    between atoms: _171  and  _173
REMARK   74  A    between atoms: _173  and  _174
REMARK   75  A    between atoms: _173  and  _176
REMARK   76  A    between atoms: _176  and  _177
REMARK   77  A    between atoms: _177  and  _178
REMARK   78  A    between atoms: _183  and  _185
REMARK   79  A    between atoms: _185  and  _186
REMARK   80  A    between atoms: _185  and  _188
REMARK   81  A    between atoms: _188  and  _189
REMARK   82  A    between atoms: _189  and  _190
REMARK   83  A    between atoms: _190  and  _191
REMARK   84  A    between atoms: _191  and  _192
REMARK   85  A    between atoms: _196  and  _198
REMARK   86  A    between atoms: _198  and  _199
REMARK   87  A    between atoms: _198  and  _201
REMARK   88  A    between atoms: _201  and  _202
REMARK   89  A    between atoms: _205  and  _207
REMARK   90  A    between atoms: _207  and  _208
REMARK   91  A    between atoms: _207  and  _210
REMARK   92  A    between atoms: _210  and  _211
REMARK   93  A    between atoms: _211  and  _212
REMARK   94  A    between atoms: _212  and  _213
REMARK   95  A    between atoms: _222  and  _224
REMARK   96  A    between atoms: _224  and  _225
REMARK   97  A    between atoms: _224  and  _227
REMARK   98  A    between atoms: _227  and  _228
REMARK   99  A    between atoms: _228  and  _229
REMARK  100  A    between atoms: _232  and  _234
REMARK  101  A    between atoms: _234  and  _235
REMARK  102  A    between atoms: _234  and  _237
REMARK  103  A    between atoms: _237  and  _238
REMARK  104  A    between atoms: _241  and  _243
REMARK  105  A    between atoms: _243  and  _244
REMARK  106  A    between atoms: _243  and  _246
REMARK  107  A    between atoms: _246  and  _247
REMARK  108  A    between atoms: _252  and  _253
REMARK  109  A    between atoms: _255  and  _257
REMARK  110  A    between atoms: _257  and  _258
REMARK  111  A    between atoms: _257  and  _260
REMARK  112  A    between atoms: _260  and  _261
REMARK  113  A    between atoms: _261  and  _262
REMARK  114  A    between atoms: _262  and  _263
REMARK  115  A    between atoms: _272  and  _274
REMARK  116  A    between atoms: _274  and  _275
REMARK  117  A    between atoms: _274  and  _277
REMARK  118  A    between atoms: _277  and  _278
REMARK  119  A    between atoms: _278  and  _279
REMARK  120  A    between atoms: _279  and  _280
REMARK  121  A    between atoms: _280  and  _281
REMARK  122  A    between atoms: _285  and  _287
REMARK  123  A    between atoms: _287  and  _288
REMARK  124  A    between atoms: _287  and  _290
REMARK  125  A    between atoms: _290  and  _291
REMARK  126  A    between atoms: _296  and  _298
REMARK  127  A    between atoms: _298  and  _299
REMARK  128  A    between atoms: _298  and  _301
REMARK  129  A    between atoms: _301  and  _302
REMARK  130  A    between atoms: _302  and  _303
REMARK                            x       y       z     vdW  Elec       q    Type
REMARK                         _______ _______ _______ _____ _____    ______ ____
ROOT
ATOM      1  O   HOH     1      19.403  -5.885  16.823  0.00  0.00    +0.000 OA
ENDROOT
TORSDOF 0
REMARK  Name = ../refined-set-2016/1n4k/1n4k_pocket.pdb
REMARK  130 active torsions:
REMARK  status: ('A' for Active; 'I' for Inactive)
REMARK    1  A    between atoms: _1  and  _3
REMARK    2  A    between atoms: _3  and  _4
REMARK    3  A    between atoms: _3  and  _6
REMARK    4  A    between atoms: _6  and  _7
REMARK    5  A    between atoms: _7  and  _8
REMARK    6  A    between atoms: _8  and  _9
REMARK    7  A    between atoms: _18  and  _20
REMARK    8  A    between atoms: _20  and  _21
REMARK    9  A    between atoms: _20  and  _23
REMARK   10  A    between atoms: _23  and  _24
REMARK   11  A    between atoms: _27  and  _29
REMARK   12  A    between atoms: _29  and  _30
REMARK   13  A    between atoms: _29  and  _32
REMARK   14  A    between atoms: _32  and  _33
REMARK   15  A    between atoms: _36  and  _38
REMARK   16  A    between atoms: _38  and  _39
REMARK   17  A    between atoms: _41  and  _43
REMARK   18  A    between atoms: _43  and  _44
REMARK   19  A    between atoms: _43  and  _46
REMARK   20  A    between atoms: _46  and  _47
REMARK   21  A    between atoms: _47  and  _48
REMARK   22  A    between atoms: _48  and  _49
REMARK   23  A    between atoms: _58  and  _60
REMARK   24  A    between atoms: _60  and  _61
REMARK   25  A    between atoms: _60  and  _63
REMARK   26  A    between atoms: _63  and  _64
REMARK   27  A    between atoms: _64  and  _65
REMARK   28  A    between atoms: _70  and  _72
REMARK   29  A    between atoms: _72  and  _73
REMARK   30  A    between atoms: _72  and  _75
REMARK   31  A    between atoms: _75  and  _76
REMARK   32  A    between atoms: _78  and  _80
REMARK   33  A    between atoms: _80  and  _81
REMARK   34  A    between atoms: _84  and  _86
REMARK   35  A    between atoms: _86  and  _87
REMARK   36  A    between atoms: _86  and  _89
REMARK   37  A    between atoms: _89  and  _90
REMARK   38  A    between atoms: _92  and  _94
REMARK   39  A    between atoms: _94  and  _95
REMARK   40  A    between atoms: _98  and  _100
REMARK   41  A    between atoms: _100  and  _101
REMARK   42  A    between atoms: _100  and  _103
REMARK   43  A    between atoms: _103  and  _104
REMARK   44  A    between atoms: _107  and  _109
REMARK   45  A    between atoms: _109  and  _110
REMARK   46  A    between atoms: _109  and  _112
REMARK   47  A    between atoms: _112  and  _113
REMARK   48  A    between atoms: _115  and  _117
REMARK   49  A    between atoms: _117  and  _118
REMARK   50  A    between atoms: _117  and  _120
REMARK   51  A    between atoms: _120  and  _121
REMARK   52  A    between atoms: _123  and  _125
REMARK   53  A    between atoms: _125  and  _126
REMARK   54  A    between atoms: _125  and  _128
REMARK   55  A    between atoms: _128  and  _129
REMARK   56  A    between atoms: _129  and  _130
REMARK   57  A    between atoms: _130  and  _131
REMARK   58  A    between atoms: _131  and  _132
REMARK   59  A    between atoms: _136  and  _138
REMARK   60  A    between atoms: _138  and  _139
REMARK   61  A    between atoms: _138  and  _141
REMARK   62  A    between atoms: _144  and  _146
REMARK   63  A    between atoms: _146  and  _147
REMARK   64  A    between atoms: _146  and  _149
REMARK   65  A    between atoms: _149  and  _150
REMARK   66  A    between atoms: _150  and  _151
REMARK   67  A    between atoms: _151  and  _152
REMARK   68  A    between atoms: _161  and  _163
REMARK   69  A    between atoms: _163  and  _164
REMARK   70  A    between atoms: _163  and  _166
REMARK   71  A    between atoms: _166  and  _167
REMARK   72  A    between atoms: _167  and  _168
REMARK   73  A    between atoms: _171  and  _173
REMARK   74  A    between atoms: _173  and  _174
REMARK   75  A    between atoms: _173  and  _176
REMARK   76  A    between atoms: _176  and  _177
REMARK   77  A    between atoms: _177  and  _178
REMARK   78  A    between atoms: _183  and  _185
REMARK   79  A    between atoms: _185  and  _186
REMARK   80  A    between atoms: _185  and  _188
REMARK   81  A    between atoms: _188  and  _189
REMARK   82  A    between atoms: _189  and  _190
REMARK   83  A    between atoms: _190  and  _191
REMARK   84  A    between atoms: _191  and  _192
REMARK   85  A    between atoms: _196  and  _198
REMARK   86  A    between atoms: _198  and  _199
REMARK   87  A    between atoms: _198  and  _201
REMARK   88  A    between atoms: _201  and  _202
REMARK   89  A    between atoms: _205  and  _207
REMARK   90  A    between atoms: _207  and  _208
REMARK   91  A    between atoms: _207  and  _210
REMARK   92  A    between atoms: _210  and  _211
REMARK   93  A    between atoms: _211  and  _212
REMARK   94  A    between atoms: _212  and  _213
REMARK   95  A    between atoms: _222  and  _224
REMARK   96  A    between atoms: _224  and  _225
REMARK   97  A    between atoms: _224  and  _227
REMARK   98  A    between atoms: _227  and  _228
REMARK   99  A    between atoms: _228  and  _229
REMARK  100  A    between atoms: _232  and  _234
REMARK  101  A    between atoms: _234  and  _235
REMARK  102  A    between atoms: _234  and  _237
REMARK  103  A    between atoms: _237  and  _238
REMARK  104  A    between atoms: _241  and  _243
REMARK  105  A    between atoms: _243  and  _244
REMARK  106  A    between atoms: _243  and  _246
REMARK  107  A    between atoms: _246  and  _247
REMARK  108  A    between atoms: _252  and  _253
REMARK  109  A    between atoms: _255  and  _257
REMARK  110  A    between atoms: _257  and  _258
REMARK  111  A    between atoms: _257  and  _260
REMARK  112  A    between atoms: _260  and  _261
REMARK  113  A    between atoms: _261  and  _262
REMARK  114  A    between atoms: _262  and  _263
REMARK  115  A    between atoms: _272  and  _274
REMARK  116  A    between atoms: _274  and  _275
REMARK  117  A    between atoms: _274  and  _277
REMARK  118  A    between atoms: _277  and  _278
REMARK  119  A    between atoms: _278  and  _279
REMARK  120  A    between atoms: _279  and  _280
REMARK  121  A    between atoms: _280  and  _281
REMARK  122  A    between atoms: _285  and  _287
REMARK  123  A    between atoms: _287  and  _288
REMARK  124  A    between atoms: _287  and  _290
REMARK  125  A    between atoms: _290  and  _291
REMARK  126  A    between atoms: _296  and  _298
REMARK  127  A    between atoms: _298  and  _299
REMARK  128  A    between atoms: _298  and  _301
REMARK  129  A    between atoms: _301  and  _302
REMARK  130  A    between atoms: _302  and  _303
REMARK                            x       y       z     vdW  Elec       q    Type
REMARK                         _______ _______ _______ _____ _____    ______ ____
ROOT
ATOM      1  O   HOH     1      25.959   6.801  18.929  0.00  0.00    +0.000 OA
ENDROOT
TORSDOF 0
REMARK  Name = ../refined-set-2016/1n4k/1n4k_pocket.pdb
REMARK  130 active torsions:
REMARK  status: ('A' for Active; 'I' for Inactive)
REMARK    1  A    between atoms: _1  and  _3
REMARK    2  A    between atoms: _3  and  _4
REMARK    3  A    between atoms: _3  and  _6
REMARK    4  A    between atoms: _6  and  _7
REMARK    5  A    between atoms: _7  and  _8
REMARK    6  A    between atoms: _8  and  _9
REMARK    7  A    between atoms: _18  and  _20
REMARK    8  A    between atoms: _20  and  _21
REMARK    9  A    between atoms: _20  and  _23
REMARK   10  A    between atoms: _23  and  _24
REMARK   11  A    between atoms: _27  and  _29
REMARK   12  A    between atoms: _29  and  _30
REMARK   13  A    between atoms: _29  and  _32
REMARK   14  A    between atoms: _32  and  _33
REMARK   15  A    between atoms: _36  and  _38
REMARK   16  A    between atoms: _38  and  _39
REMARK   17  A    between atoms: _41  and  _43
REMARK   18  A    between atoms: _43  and  _44
REMARK   19  A    between atoms: _43  and  _46
REMARK   20  A    between atoms: _46  and  _47
REMARK   21  A    between atoms: _47  and  _48
REMARK   22  A    between atoms: _48  and  _49
REMARK   23  A    between atoms: _58  and  _60
REMARK   24  A    between atoms: _60  and  _61
REMARK   25  A    between atoms: _60  and  _63
REMARK   26  A    between atoms: _63  and  _64
REMARK   27  A    between atoms: _64  and  _65
REMARK   28  A    between atoms: _70  and  _72
REMARK   29  A    between atoms: _72  and  _73
REMARK   30  A    between atoms: _72  and  _75
REMARK   31  A    between atoms: _75  and  _76
REMARK   32  A    between atoms: _78  and  _80
REMARK   33  A    between atoms: _80  and  _81
REMARK   34  A    between atoms: _84  and  _86
REMARK   35  A    between atoms: _86  and  _87
REMARK   36  A    between atoms: _86  and  _89
REMARK   37  A    between atoms: _89  and  _90
REMARK   38  A    between atoms: _92  and  _94
REMARK   39  A    between atoms: _94  and  _95
REMARK   40  A    between atoms: _98  and  _100
REMARK   41  A    between atoms: _100  and  _101
REMARK   42  A    between atoms: _100  and  _103
REMARK   43  A    between atoms: _103  and  _104
REMARK   44  A    between atoms: _107  and  _109
REMARK   45  A    between atoms: _109  and  _110
REMARK   46  A    between atoms: _109  and  _112
REMARK   47  A    between atoms: _112  and  _113
REMARK   48  A    between atoms: _115  and  _117
REMARK   49  A    between atoms: _117  and  _118
REMARK   50  A    between atoms: _117  and  _120
REMARK   51  A    between atoms: _120  and  _121
REMARK   52  A    between atoms: _123  and  _125
REMARK   53  A    between atoms: _125  and  _126
REMARK   54  A    between atoms: _125  and  _128
REMARK   55  A    between atoms: _128  and  _129
REMARK   56  A    between atoms: _129  and  _130
REMARK   57  A    between atoms: _130  and  _131
REMARK   58  A    between atoms: _131  and  _132
REMARK   59  A    between atoms: _136  and  _138
REMARK   60  A    between atoms: _138  and  _139
REMARK   61  A    between atoms: _138  and  _141
REMARK   62  A    between atoms: _144  and  _146
REMARK   63  A    between atoms: _146  and  _147
REMARK   64  A    between atoms: _146  and  _149
REMARK   65  A    between atoms: _149  and  _150
REMARK   66  A    between atoms: _150  and  _151
REMARK   67  A    between atoms: _151  and  _152
REMARK   68  A    between atoms: _161  and  _163
REMARK   69  A    between atoms: _163  and  _164
REMARK   70  A    between atoms: _163  and  _166
REMARK   71  A    between atoms: _166  and  _167
REMARK   72  A    between atoms: _167  and  _168
REMARK   73  A    between atoms: _171  and  _173
REMARK   74  A    between atoms: _173  and  _174
REMARK   75  A    between atoms: _173  and  _176
REMARK   76  A    between atoms: _176  and  _177
REMARK   77  A    between atoms: _177  and  _178
REMARK   78  A    between atoms: _183  and  _185
REMARK   79  A    between atoms: _185  and  _186
REMARK   80  A    between atoms: _185  and  _188
REMARK   81  A    between atoms: _188  and  _189
REMARK   82  A    between atoms: _189  and  _190
REMARK   83  A    between atoms: _190  and  _191
REMARK   84  A    between atoms: _191  and  _192
REMARK   85  A    between atoms: _196  and  _198
REMARK   86  A    between atoms: _198  and  _199
REMARK   87  A    between atoms: _198  and  _201
REMARK   88  A    between atoms: _201  and  _202
REMARK   89  A    between atoms: _205  and  _207
REMARK   90  A    between atoms: _207  and  _208
REMARK   91  A    between atoms: _207  and  _210
REMARK   92  A    between atoms: _210  and  _211
REMARK   93  A    between atoms: _211  and  _212
REMARK   94  A    between atoms: _212  and  _213
REMARK   95  A    between atoms: _222  and  _224
REMARK   96  A    between atoms: _224  and  _225
REMARK   97  A    between atoms: _224  and  _227
REMARK   98  A    between atoms: _227  and  _228
REMARK   99  A    between atoms: _228  and  _229
REMARK  100  A    between atoms: _232  and  _234
REMARK  101  A    between atoms: _234  and  _235
REMARK  102  A    between atoms: _234  and  _237
REMARK  103  A    between atoms: _237  and  _238
REMARK  104  A    between atoms: _241  and  _243
REMARK  105  A    between atoms: _243  and  _244
REMARK  106  A    between atoms: _243  and  _246
REMARK  107  A    between atoms: _246  and  _247
REMARK  108  A    between atoms: _252  and  _253
REMARK  109  A    between atoms: _255  and  _257
REMARK  110  A    between atoms: _257  and  _258
REMARK  111  A    between atoms: _257  and  _260
REMARK  112  A    between atoms: _260  and  _261
REMARK  113  A    between atoms: _261  and  _262
REMARK  114  A    between atoms: _262  and  _263
REMARK  115  A    between atoms: _272  and  _274
REMARK  116  A    between atoms: _274  and  _275
REMARK  117  A    between atoms: _274  and  _277
REMARK  118  A    between atoms: _277  and  _278
REMARK  119  A    between atoms: _278  and  _279
REMARK  120  A    between atoms: _279  and  _280
REMARK  121  A    between atoms: _280  and  _281
REMARK  122  A    between atoms: _285  and  _287
REMARK  123  A    between atoms: _287  and  _288
REMARK  124  A    between atoms: _287  and  _290
REMARK  125  A    between atoms: _290  and  _291
REMARK  126  A    between atoms: _296  and  _298
REMARK  127  A    between atoms: _298  and  _299
REMARK  128  A    between atoms: _298  and  _301
REMARK  129  A    between atoms: _301  and  _302
REMARK  130  A    between atoms: _302  and  _303
REMARK                            x       y       z     vdW  Elec       q    Type
REMARK                         _______ _______ _______ _____ _____    ______ ____
ROOT
ATOM      1  O   HOH     1      18.740  -2.497  13.860  0.00  0.00    +0.000 OA
ENDROOT
TORSDOF 0
REMARK  Name = ../refined-set-2016/1n4k/1n4k_pocket.pdb
REMARK  130 active torsions:
REMARK  status: ('A' for Active; 'I' for Inactive)
REMARK    1  A    between atoms: _1  and  _3
REMARK    2  A    between atoms: _3  and  _4
REMARK    3  A    between atoms: _3  and  _6
REMARK    4  A    between atoms: _6  and  _7
REMARK    5  A    between atoms: _7  and  _8
REMARK    6  A    between atoms: _8  and  _9
REMARK    7  A    between atoms: _18  and  _20
REMARK    8  A    between atoms: _20  and  _21
REMARK    9  A    between atoms: _20  and  _23
REMARK   10  A    between atoms: _23  and  _24
REMARK   11  A    between atoms: _27  and  _29
REMARK   12  A    between atoms: _29  and  _30
REMARK   13  A    between atoms: _29  and  _32
REMARK   14  A    between atoms: _32  and  _33
REMARK   15  A    between atoms: _36  and  _38
REMARK   16  A    between atoms: _38  and  _39
REMARK   17  A    between atoms: _41  and  _43
REMARK   18  A    between atoms: _43  and  _44
REMARK   19  A    between atoms: _43  and  _46
REMARK   20  A    between atoms: _46  and  _47
REMARK   21  A    between atoms: _47  and  _48
REMARK   22  A    between atoms: _48  and  _49
REMARK   23  A    between atoms: _58  and  _60
REMARK   24  A    between atoms: _60  and  _61
REMARK   25  A    between atoms: _60  and  _63
REMARK   26  A    between atoms: _63  and  _64
REMARK   27  A    between atoms: _64  and  _65
REMARK   28  A    between atoms: _70  and  _72
REMARK   29  A    between atoms: _72  and  _73
REMARK   30  A    between atoms: _72  and  _75
REMARK   31  A    between atoms: _75  and  _76
REMARK   32  A    between atoms: _78  and  _80
REMARK   33  A    between atoms: _80  and  _81
REMARK   34  A    between atoms: _84  and  _86
REMARK   35  A    between atoms: _86  and  _87
REMARK   36  A    between atoms: _86  and  _89
REMARK   37  A    between atoms: _89  and  _90
REMARK   38  A    between atoms: _92  and  _94
REMARK   39  A    between atoms: _94  and  _95
REMARK   40  A    between atoms: _98  and  _100
REMARK   41  A    between atoms: _100  and  _101
REMARK   42  A    between atoms: _100  and  _103
REMARK   43  A    between atoms: _103  and  _104
REMARK   44  A    between atoms: _107  and  _109
REMARK   45  A    between atoms: _109  and  _110
REMARK   46  A    between atoms: _109  and  _112
REMARK   47  A    between atoms: _112  and  _113
REMARK   48  A    between atoms: _115  and  _117
REMARK   49  A    between atoms: _117  and  _118
REMARK   50  A    between atoms: _117  and  _120
REMARK   51  A    between atoms: _120  and  _121
REMARK   52  A    between atoms: _123  and  _125
REMARK   53  A    between atoms: _125  and  _126
REMARK   54  A    between atoms: _125  and  _128
REMARK   55  A    between atoms: _128  and  _129
REMARK   56  A    between atoms: _129  and  _130
REMARK   57  A    between atoms: _130  and  _131
REMARK   58  A    between atoms: _131  and  _132
REMARK   59  A    between atoms: _136  and  _138
REMARK   60  A    between atoms: _138  and  _139
REMARK   61  A    between atoms: _138  and  _141
REMARK   62  A    between atoms: _144  and  _146
REMARK   63  A    between atoms: _146  and  _147
REMARK   64  A    between atoms: _146  and  _149
REMARK   65  A    between atoms: _149  and  _150
REMARK   66  A    between atoms: _150  and  _151
REMARK   67  A    between atoms: _151  and  _152
REMARK   68  A    between atoms: _161  and  _163
REMARK   69  A    between atoms: _163  and  _164
REMARK   70  A    between atoms: _163  and  _166
REMARK   71  A    between atoms: _166  and  _167
REMARK   72  A    between atoms: _167  and  _168
REMARK   73  A    between atoms: _171  and  _173
REMARK   74  A    between atoms: _173  and  _174
REMARK   75  A    between atoms: _173  and  _176
REMARK   76  A    between atoms: _176  and  _177
REMARK   77  A    between atoms: _177  and  _178
REMARK   78  A    between atoms: _183  and  _185
REMARK   79  A    between atoms: _185  and  _186
REMARK   80  A    between atoms: _185  and  _188
REMARK   81  A    between atoms: _188  and  _189
REMARK   82  A    between atoms: _189  and  _190
REMARK   83  A    between atoms: _190  and  _191
REMARK   84  A    between atoms: _191  and  _192
REMARK   85  A    between atoms: _196  and  _198
REMARK   86  A    between atoms: _198  and  _199
REMARK   87  A    between atoms: _198  and  _201
REMARK   88  A    between atoms: _201  and  _202
REMARK   89  A    between atoms: _205  and  _207
REMARK   90  A    between atoms: _207  and  _208
REMARK   91  A    between atoms: _207  and  _210
REMARK   92  A    between atoms: _210  and  _211
REMARK   93  A    between atoms: _211  and  _212
REMARK   94  A    between atoms: _212  and  _213
REMARK   95  A    between atoms: _222  and  _224
REMARK   96  A    between atoms: _224  and  _225
REMARK   97  A    between atoms: _224  and  _227
REMARK   98  A    between atoms: _227  and  _228
REMARK   99  A    between atoms: _228  and  _229
REMARK  100  A    between atoms: _232  and  _234
REMARK  101  A    between atoms: _234  and  _235
REMARK  102  A    between atoms: _234  and  _237
REMARK  103  A    between atoms: _237  and  _238
REMARK  104  A    between atoms: _241  and  _243
REMARK  105  A    between atoms: _243  and  _244
REMARK  106  A    between atoms: _243  and  _246
REMARK  107  A    between atoms: _246  and  _247
REMARK  108  A    between atoms: _252  and  _253
REMARK  109  A    between atoms: _255  and  _257
REMARK  110  A    between atoms: _257  and  _258
REMARK  111  A    between atoms: _257  and  _260
REMARK  112  A    between atoms: _260  and  _261
REMARK  113  A    between atoms: _261  and  _262
REMARK  114  A    between atoms: _262  and  _263
REMARK  115  A    between atoms: _272  and  _274
REMARK  116  A    between atoms: _274  and  _275
REMARK  117  A    between atoms: _274  and  _277
REMARK  118  A    between atoms: _277  and  _278
REMARK  119  A    between atoms: _278  and  _279
REMARK  120  A    between atoms: _279  and  _280
REMARK  121  A    between atoms: _280  and  _281
REMARK  122  A    between atoms: _285  and  _287
REMARK  123  A    between atoms: _287  and  _288
REMARK  124  A    between atoms: _287  and  _290
REMARK  125  A    between atoms: _290  and  _291
REMARK  126  A    between atoms: _296  and  _298
REMARK  127  A    between atoms: _298  and  _299
REMARK  128  A    between atoms: _298  and  _301
REMARK  129  A    between atoms: _301  and  _302
REMARK  130  A    between atoms: _302  and  _303
REMARK                            x       y       z     vdW  Elec       q    Type
REMARK                         _______ _______ _______ _____ _____    ______ ____
ROOT
ATOM      1  O   HOH     1      23.858  -0.228  19.171  0.00  0.00    +0.000 OA
ENDROOT
TORSDOF 0
REMARK  Name = ../refined-set-2016/1n4k/1n4k_pocket.pdb
REMARK  130 active torsions:
REMARK  status: ('A' for Active; 'I' for Inactive)
REMARK    1  A    between atoms: _1  and  _3
REMARK    2  A    between atoms: _3  and  _4
REMARK    3  A    between atoms: _3  and  _6
REMARK    4  A    between atoms: _6  and  _7
REMARK    5  A    between atoms: _7  and  _8
REMARK    6  A    between atoms: _8  and  _9
REMARK    7  A    between atoms: _18  and  _20
REMARK    8  A    between atoms: _20  and  _21
REMARK    9  A    between atoms: _20  and  _23
REMARK   10  A    between atoms: _23  and  _24
REMARK   11  A    between atoms: _27  and  _29
REMARK   12  A    between atoms: _29  and  _30
REMARK   13  A    between atoms: _29  and  _32
REMARK   14  A    between atoms: _32  and  _33
REMARK   15  A    between atoms: _36  and  _38
REMARK   16  A    between atoms: _38  and  _39
REMARK   17  A    between atoms: _41  and  _43
REMARK   18  A    between atoms: _43  and  _44
REMARK   19  A    between atoms: _43  and  _46
REMARK   20  A    between atoms: _46  and  _47
REMARK   21  A    between atoms: _47  and  _48
REMARK   22  A    between atoms: _48  and  _49
REMARK   23  A    between atoms: _58  and  _60
REMARK   24  A    between atoms: _60  and  _61
REMARK   25  A    between atoms: _60  and  _63
REMARK   26  A    between atoms: _63  and  _64
REMARK   27  A    between atoms: _64  and  _65
REMARK   28  A    between atoms: _70  and  _72
REMARK   29  A    between atoms: _72  and  _73
REMARK   30  A    between atoms: _72  and  _75
REMARK   31  A    between atoms: _75  and  _76
REMARK   32  A    between atoms: _78  and  _80
REMARK   33  A    between atoms: _80  and  _81
REMARK   34  A    between atoms: _84  and  _86
REMARK   35  A    between atoms: _86  and  _87
REMARK   36  A    between atoms: _86  and  _89
REMARK   37  A    between atoms: _89  and  _90
REMARK   38  A    between atoms: _92  and  _94
REMARK   39  A    between atoms: _94  and  _95
REMARK   40  A    between atoms: _98  and  _100
REMARK   41  A    between atoms: _100  and  _101
REMARK   42  A    between atoms: _100  and  _103
REMARK   43  A    between atoms: _103  and  _104
REMARK   44  A    between atoms: _107  and  _109
REMARK   45  A    between atoms: _109  and  _110
REMARK   46  A    between atoms: _109  and  _112
REMARK   47  A    between atoms: _112  and  _113
REMARK   48  A    between atoms: _115  and  _117
REMARK   49  A    between atoms: _117  and  _118
REMARK   50  A    between atoms: _117  and  _120
REMARK   51  A    between atoms: _120  and  _121
REMARK   52  A    between atoms: _123  and  _125
REMARK   53  A    between atoms: _125  and  _126
REMARK   54  A    between atoms: _125  and  _128
REMARK   55  A    between atoms: _128  and  _129
REMARK   56  A    between atoms: _129  and  _130
REMARK   57  A    between atoms: _130  and  _131
REMARK   58  A    between atoms: _131  and  _132
REMARK   59  A    between atoms: _136  and  _138
REMARK   60  A    between atoms: _138  and  _139
REMARK   61  A    between atoms: _138  and  _141
REMARK   62  A    between atoms: _144  and  _146
REMARK   63  A    between atoms: _146  and  _147
REMARK   64  A    between atoms: _146  and  _149
REMARK   65  A    between atoms: _149  and  _150
REMARK   66  A    between atoms: _150  and  _151
REMARK   67  A    between atoms: _151  and  _152
REMARK   68  A    between atoms: _161  and  _163
REMARK   69  A    between atoms: _163  and  _164
REMARK   70  A    between atoms: _163  and  _166
REMARK   71  A    between atoms: _166  and  _167
REMARK   72  A    between atoms: _167  and  _168
REMARK   73  A    between atoms: _171  and  _173
REMARK   74  A    between atoms: _173  and  _174
REMARK   75  A    between atoms: _173  and  _176
REMARK   76  A    between atoms: _176  and  _177
REMARK   77  A    between atoms: _177  and  _178
REMARK   78  A    between atoms: _183  and  _185
REMARK   79  A    between atoms: _185  and  _186
REMARK   80  A    between atoms: _185  and  _188
REMARK   81  A    between atoms: _188  and  _189
REMARK   82  A    between atoms: _189  and  _190
REMARK   83  A    between atoms: _190  and  _191
REMARK   84  A    between atoms: _191  and  _192
REMARK   85  A    between atoms: _196  and  _198
REMARK   86  A    between atoms: _198  and  _199
REMARK   87  A    between atoms: _198  and  _201
REMARK   88  A    between atoms: _201  and  _202
REMARK   89  A    between atoms: _205  and  _207
REMARK   90  A    between atoms: _207  and  _208
REMARK   91  A    between atoms: _207  and  _210
REMARK   92  A    between atoms: _210  and  _211
REMARK   93  A    between atoms: _211  and  _212
REMARK   94  A    between atoms: _212  and  _213
REMARK   95  A    between atoms: _222  and  _224
REMARK   96  A    between atoms: _224  and  _225
REMARK   97  A    between atoms: _224  and  _227
REMARK   98  A    between atoms: _227  and  _228
REMARK   99  A    between atoms: _228  and  _229
REMARK  100  A    between atoms: _232  and  _234
REMARK  101  A    between atoms: _234  and  _235
REMARK  102  A    between atoms: _234  and  _237
REMARK  103  A    between atoms: _237  and  _238
REMARK  104  A    between atoms: _241  and  _243
REMARK  105  A    between atoms: _243  and  _244
REMARK  106  A    between atoms: _243  and  _246
REMARK  107  A    between atoms: _246  and  _247
REMARK  108  A    between atoms: _252  and  _253
REMARK  109  A    between atoms: _255  and  _257
REMARK  110  A    between atoms: _257  and  _258
REMARK  111  A    between atoms: _257  and  _260
REMARK  112  A    between atoms: _260  and  _261
REMARK  113  A    between atoms: _261  and  _262
REMARK  114  A    between atoms: _262  and  _263
REMARK  115  A    between atoms: _272  and  _274
REMARK  116  A    between atoms: _274  and  _275
REMARK  117  A    between atoms: _274  and  _277
REMARK  118  A    between atoms: _277  and  _278
REMARK  119  A    between atoms: _278  and  _279
REMARK  120  A    between atoms: _279  and  _280
REMARK  121  A    between atoms: _280  and  _281
REMARK  122  A    between atoms: _285  and  _287
REMARK  123  A    between atoms: _287  and  _288
REMARK  124  A    between atoms: _287  and  _290
REMARK  125  A    between atoms: _290  and  _291
REMARK  126  A    between atoms: _296  and  _298
REMARK  127  A    between atoms: _298  and  _299
REMARK  128  A    between atoms: _298  and  _301
REMARK  129  A    between atoms: _301  and  _302
REMARK  130  A    between atoms: _302  and  _303
REMARK                            x       y       z     vdW  Elec       q    Type
REMARK                         _______ _______ _______ _____ _____    ______ ____
ROOT
ATOM      1  O   HOH     1      22.960  -0.840  23.586  0.00  0.00    +0.000 OA
ENDROOT
TORSDOF 0
REMARK  Name = ../refined-set-2016/1n4k/1n4k_pocket.pdb
REMARK  130 active torsions:
REMARK  status: ('A' for Active; 'I' for Inactive)
REMARK    1  A    between atoms: _1  and  _3
REMARK    2  A    between atoms: _3  and  _4
REMARK    3  A    between atoms: _3  and  _6
REMARK    4  A    between atoms: _6  and  _7
REMARK    5  A    between atoms: _7  and  _8
REMARK    6  A    between atoms: _8  and  _9
REMARK    7  A    between atoms: _18  and  _20
REMARK    8  A    between atoms: _20  and  _21
REMARK    9  A    between atoms: _20  and  _23
REMARK   10  A    between atoms: _23  and  _24
REMARK   11  A    between atoms: _27  and  _29
REMARK   12  A    between atoms: _29  and  _30
REMARK   13  A    between atoms: _29  and  _32
REMARK   14  A    between atoms: _32  and  _33
REMARK   15  A    between atoms: _36  and  _38
REMARK   16  A    between atoms: _38  and  _39
REMARK   17  A    between atoms: _41  and  _43
REMARK   18  A    between atoms: _43  and  _44
REMARK   19  A    between atoms: _43  and  _46
REMARK   20  A    between atoms: _46  and  _47
REMARK   21  A    between atoms: _47  and  _48
REMARK   22  A    between atoms: _48  and  _49
REMARK   23  A    between atoms: _58  and  _60
REMARK   24  A    between atoms: _60  and  _61
REMARK   25  A    between atoms: _60  and  _63
REMARK   26  A    between atoms: _63  and  _64
REMARK   27  A    between atoms: _64  and  _65
REMARK   28  A    between atoms: _70  and  _72
REMARK   29  A    between atoms: _72  and  _73
REMARK   30  A    between atoms: _72  and  _75
REMARK   31  A    between atoms: _75  and  _76
REMARK   32  A    between atoms: _78  and  _80
REMARK   33  A    between atoms: _80  and  _81
REMARK   34  A    between atoms: _84  and  _86
REMARK   35  A    between atoms: _86  and  _87
REMARK   36  A    between atoms: _86  and  _89
REMARK   37  A    between atoms: _89  and  _90
REMARK   38  A    between atoms: _92  and  _94
REMARK   39  A    between atoms: _94  and  _95
REMARK   40  A    between atoms: _98  and  _100
REMARK   41  A    between atoms: _100  and  _101
REMARK   42  A    between atoms: _100  and  _103
REMARK   43  A    between atoms: _103  and  _104
REMARK   44  A    between atoms: _107  and  _109
REMARK   45  A    between atoms: _109  and  _110
REMARK   46  A    between atoms: _109  and  _112
REMARK   47  A    between atoms: _112  and  _113
REMARK   48  A    between atoms: _115  and  _117
REMARK   49  A    between atoms: _117  and  _118
REMARK   50  A    between atoms: _117  and  _120
REMARK   51  A    between atoms: _120  and  _121
REMARK   52  A    between atoms: _123  and  _125
REMARK   53  A    between atoms: _125  and  _126
REMARK   54  A    between atoms: _125  and  _128
REMARK   55  A    between atoms: _128  and  _129
REMARK   56  A    between atoms: _129  and  _130
REMARK   57  A    between atoms: _130  and  _131
REMARK   58  A    between atoms: _131  and  _132
REMARK   59  A    between atoms: _136  and  _138
REMARK   60  A    between atoms: _138  and  _139
REMARK   61  A    between atoms: _138  and  _141
REMARK   62  A    between atoms: _144  and  _146
REMARK   63  A    between atoms: _146  and  _147
REMARK   64  A    between atoms: _146  and  _149
REMARK   65  A    between atoms: _149  and  _150
REMARK   66  A    between atoms: _150  and  _151
REMARK   67  A    between atoms: _151  and  _152
REMARK   68  A    between atoms: _161  and  _163
REMARK   69  A    between atoms: _163  and  _164
REMARK   70  A    between atoms: _163  and  _166
REMARK   71  A    between atoms: _166  and  _167
REMARK   72  A    between atoms: _167  and  _168
REMARK   73  A    between atoms: _171  and  _173
REMARK   74  A    between atoms: _173  and  _174
REMARK   75  A    between atoms: _173  and  _176
REMARK   76  A    between atoms: _176  and  _177
REMARK   77  A    between atoms: _177  and  _178
REMARK   78  A    between atoms: _183  and  _185
REMARK   79  A    between atoms: _185  and  _186
REMARK   80  A    between atoms: _185  and  _188
REMARK   81  A    between atoms: _188  and  _189
REMARK   82  A    between atoms: _189  and  _190
REMARK   83  A    between atoms: _190  and  _191
REMARK   84  A    between atoms: _191  and  _192
REMARK   85  A    between atoms: _196  and  _198
REMARK   86  A    between atoms: _198  and  _199
REMARK   87  A    between atoms: _198  and  _201
REMARK   88  A    between atoms: _201  and  _202
REMARK   89  A    between atoms: _205  and  _207
REMARK   90  A    between atoms: _207  and  _208
REMARK   91  A    between atoms: _207  and  _210
REMARK   92  A    between atoms: _210  and  _211
REMARK   93  A    between atoms: _211  and  _212
REMARK   94  A    between atoms: _212  and  _213
REMARK   95  A    between atoms: _222  and  _224
REMARK   96  A    between atoms: _224  and  _225
REMARK   97  A    between atoms: _224  and  _227
REMARK   98  A    between atoms: _227  and  _228
REMARK   99  A    between atoms: _228  and  _229
REMARK  100  A    between atoms: _232  and  _234
REMARK  101  A    between atoms: _234  and  _235
REMARK  102  A    between atoms: _234  and  _237
REMARK  103  A    between atoms: _237  and  _238
REMARK  104  A    between atoms: _241  and  _243
REMARK  105  A    between atoms: _243  and  _244
REMARK  106  A    between atoms: _243  and  _246
REMARK  107  A    between atoms: _246  and  _247
REMARK  108  A    between atoms: _252  and  _253
REMARK  109  A    between atoms: _255  and  _257
REMARK  110  A    between atoms: _257  and  _258
REMARK  111  A    between atoms: _257  and  _260
REMARK  112  A    between atoms: _260  and  _261
REMARK  113  A    between atoms: _261  and  _262
REMARK  114  A    between atoms: _262  and  _263
REMARK  115  A    between atoms: _272  and  _274
REMARK  116  A    between atoms: _274  and  _275
REMARK  117  A    between atoms: _274  and  _277
REMARK  118  A    between atoms: _277  and  _278
REMARK  119  A    between atoms: _278  and  _279
REMARK  120  A    between atoms: _279  and  _280
REMARK  121  A    between atoms: _280  and  _281
REMARK  122  A    between atoms: _285  and  _287
REMARK  123  A    between atoms: _287  and  _288
REMARK  124  A    between atoms: _287  and  _290
REMARK  125  A    between atoms: _290  and  _291
REMARK  126  A    between atoms: _296  and  _298
REMARK  127  A    between atoms: _298  and  _299
REMARK  128  A    between atoms: _298  and  _301
REMARK  129  A    between atoms: _301  and  _302
REMARK  130  A    between atoms: _302  and  _303
REMARK                            x       y       z     vdW  Elec       q    Type
REMARK                         _______ _______ _______ _____ _____    ______ ____
ROOT
ATOM      1  O   HOH     1      17.070  -4.118  15.472  0.00  0.00    +0.000 OA
ENDROOT
TORSDOF 0
REMARK  Name = ../refined-set-2016/1n4k/1n4k_pocket.pdb
REMARK  130 active torsions:
REMARK  status: ('A' for Active; 'I' for Inactive)
REMARK    1  A    between atoms: _1  and  _3
REMARK    2  A    between atoms: _3  and  _4
REMARK    3  A    between atoms: _3  and  _6
REMARK    4  A    between atoms: _6  and  _7
REMARK    5  A    between atoms: _7  and  _8
REMARK    6  A    between atoms: _8  and  _9
REMARK    7  A    between atoms: _18  and  _20
REMARK    8  A    between atoms: _20  and  _21
REMARK    9  A    between atoms: _20  and  _23
REMARK   10  A    between atoms: _23  and  _24
REMARK   11  A    between atoms: _27  and  _29
REMARK   12  A    between atoms: _29  and  _30
REMARK   13  A    between atoms: _29  and  _32
REMARK   14  A    between atoms: _32  and  _33
REMARK   15  A    between atoms: _36  and  _38
REMARK   16  A    between atoms: _38  and  _39
REMARK   17  A    between atoms: _41  and  _43
REMARK   18  A    between atoms: _43  and  _44
REMARK   19  A    between atoms: _43  and  _46
REMARK   20  A    between atoms: _46  and  _47
REMARK   21  A    between atoms: _47  and  _48
REMARK   22  A    between atoms: _48  and  _49
REMARK   23  A    between atoms: _58  and  _60
REMARK   24  A    between atoms: _60  and  _61
REMARK   25  A    between atoms: _60  and  _63
REMARK   26  A    between atoms: _63  and  _64
REMARK   27  A    between atoms: _64  and  _65
REMARK   28  A    between atoms: _70  and  _72
REMARK   29  A    between atoms: _72  and  _73
REMARK   30  A    between atoms: _72  and  _75
REMARK   31  A    between atoms: _75  and  _76
REMARK   32  A    between atoms: _78  and  _80
REMARK   33  A    between atoms: _80  and  _81
REMARK   34  A    between atoms: _84  and  _86
REMARK   35  A    between atoms: _86  and  _87
REMARK   36  A    between atoms: _86  and  _89
REMARK   37  A    between atoms: _89  and  _90
REMARK   38  A    between atoms: _92  and  _94
REMARK   39  A    between atoms: _94  and  _95
REMARK   40  A    between atoms: _98  and  _100
REMARK   41  A    between atoms: _100  and  _101
REMARK   42  A    between atoms: _100  and  _103
REMARK   43  A    between atoms: _103  and  _104
REMARK   44  A    between atoms: _107  and  _109
REMARK   45  A    between atoms: _109  and  _110
REMARK   46  A    between atoms: _109  and  _112
REMARK   47  A    between atoms: _112  and  _113
REMARK   48  A    between atoms: _115  and  _117
REMARK   49  A    between atoms: _117  and  _118
REMARK   50  A    between atoms: _117  and  _120
REMARK   51  A    between atoms: _120  and  _121
REMARK   52  A    between atoms: _123  and  _125
REMARK   53  A    between atoms: _125  and  _126
REMARK   54  A    between atoms: _125  and  _128
REMARK   55  A    between atoms: _128  and  _129
REMARK   56  A    between atoms: _129  and  _130
REMARK   57  A    between atoms: _130  and  _131
REMARK   58  A    between atoms: _131  and  _132
REMARK   59  A    between atoms: _136  and  _138
REMARK   60  A    between atoms: _138  and  _139
REMARK   61  A    between atoms: _138  and  _141
REMARK   62  A    between atoms: _144  and  _146
REMARK   63  A    between atoms: _146  and  _147
REMARK   64  A    between atoms: _146  and  _149
REMARK   65  A    between atoms: _149  and  _150
REMARK   66  A    between atoms: _150  and  _151
REMARK   67  A    between atoms: _151  and  _152
REMARK   68  A    between atoms: _161  and  _163
REMARK   69  A    between atoms: _163  and  _164
REMARK   70  A    between atoms: _163  and  _166
REMARK   71  A    between atoms: _166  and  _167
REMARK   72  A    between atoms: _167  and  _168
REMARK   73  A    between atoms: _171  and  _173
REMARK   74  A    between atoms: _173  and  _174
REMARK   75  A    between atoms: _173  and  _176
REMARK   76  A    between atoms: _176  and  _177
REMARK   77  A    between atoms: _177  and  _178
REMARK   78  A    between atoms: _183  and  _185
REMARK   79  A    between atoms: _185  and  _186
REMARK   80  A    between atoms: _185  and  _188
REMARK   81  A    between atoms: _188  and  _189
REMARK   82  A    between atoms: _189  and  _190
REMARK   83  A    between atoms: _190  and  _191
REMARK   84  A    between atoms: _191  and  _192
REMARK   85  A    between atoms: _196  and  _198
REMARK   86  A    between atoms: _198  and  _199
REMARK   87  A    between atoms: _198  and  _201
REMARK   88  A    between atoms: _201  and  _202
REMARK   89  A    between atoms: _205  and  _207
REMARK   90  A    between atoms: _207  and  _208
REMARK   91  A    between atoms: _207  and  _210
REMARK   92  A    between atoms: _210  and  _211
REMARK   93  A    between atoms: _211  and  _212
REMARK   94  A    between atoms: _212  and  _213
REMARK   95  A    between atoms: _222  and  _224
REMARK   96  A    between atoms: _224  and  _225
REMARK   97  A    between atoms: _224  and  _227
REMARK   98  A    between atoms: _227  and  _228
REMARK   99  A    between atoms: _228  and  _229
REMARK  100  A    between atoms: _232  and  _234
REMARK  101  A    between atoms: _234  and  _235
REMARK  102  A    between atoms: _234  and  _237
REMARK  103  A    between atoms: _237  and  _238
REMARK  104  A    between atoms: _241  and  _243
REMARK  105  A    between atoms: _243  and  _244
REMARK  106  A    between atoms: _243  and  _246
REMARK  107  A    between atoms: _246  and  _247
REMARK  108  A    between atoms: _252  and  _253
REMARK  109  A    between atoms: _255  and  _257
REMARK  110  A    between atoms: _257  and  _258
REMARK  111  A    between atoms: _257  and  _260
REMARK  112  A    between atoms: _260  and  _261
REMARK  113  A    between atoms: _261  and  _262
REMARK  114  A    between atoms: _262  and  _263
REMARK  115  A    between atoms: _272  and  _274
REMARK  116  A    between atoms: _274  and  _275
REMARK  117  A    between atoms: _274  and  _277
REMARK  118  A    between atoms: _277  and  _278
REMARK  119  A    between atoms: _278  and  _279
REMARK  120  A    between atoms: _279  and  _280
REMARK  121  A    between atoms: _280  and  _281
REMARK  122  A    between atoms: _285  and  _287
REMARK  123  A    between atoms: _287  and  _288
REMARK  124  A    between atoms: _287  and  _290
REMARK  125  A    between atoms: _290  and  _291
REMARK  126  A    between atoms: _296  and  _298
REMARK  127  A    between atoms: _298  and  _299
REMARK  128  A    between atoms: _298  and  _301
REMARK  129  A    between atoms: _301  and  _302
REMARK  130  A    between atoms: _302  and  _303
REMARK                            x       y       z     vdW  Elec       q    Type
REMARK                         _______ _______ _______ _____ _____    ______ ____
ROOT
ATOM      1  O   HOH     1      15.572   2.318  12.931  0.00  0.00    +0.000 OA
ENDROOT
TORSDOF 0
REMARK  Name = ../refined-set-2016/1n4k/1n4k_pocket.pdb
REMARK  130 active torsions:
REMARK  status: ('A' for Active; 'I' for Inactive)
REMARK    1  A    between atoms: _1  and  _3
REMARK    2  A    between atoms: _3  and  _4
REMARK    3  A    between atoms: _3  and  _6
REMARK    4  A    between atoms: _6  and  _7
REMARK    5  A    between atoms: _7  and  _8
REMARK    6  A    between atoms: _8  and  _9
REMARK    7  A    between atoms: _18  and  _20
REMARK    8  A    between atoms: _20  and  _21
REMARK    9  A    between atoms: _20  and  _23
REMARK   10  A    between atoms: _23  and  _24
REMARK   11  A    between atoms: _27  and  _29
REMARK   12  A    between atoms: _29  and  _30
REMARK   13  A    between atoms: _29  and  _32
REMARK   14  A    between atoms: _32  and  _33
REMARK   15  A    between atoms: _36  and  _38
REMARK   16  A    between atoms: _38  and  _39
REMARK   17  A    between atoms: _41  and  _43
REMARK   18  A    between atoms: _43  and  _44
REMARK   19  A    between atoms: _43  and  _46
REMARK   20  A    between atoms: _46  and  _47
REMARK   21  A    between atoms: _47  and  _48
REMARK   22  A    between atoms: _48  and  _49
REMARK   23  A    between atoms: _58  and  _60
REMARK   24  A    between atoms: _60  and  _61
REMARK   25  A    between atoms: _60  and  _63
REMARK   26  A    between atoms: _63  and  _64
REMARK   27  A    between atoms: _64  and  _65
REMARK   28  A    between atoms: _70  and  _72
REMARK   29  A    between atoms: _72  and  _73
REMARK   30  A    between atoms: _72  and  _75
REMARK   31  A    between atoms: _75  and  _76
REMARK   32  A    between atoms: _78  and  _80
REMARK   33  A    between atoms: _80  and  _81
REMARK   34  A    between atoms: _84  and  _86
REMARK   35  A    between atoms: _86  and  _87
REMARK   36  A    between atoms: _86  and  _89
REMARK   37  A    between atoms: _89  and  _90
REMARK   38  A    between atoms: _92  and  _94
REMARK   39  A    between atoms: _94  and  _95
REMARK   40  A    between atoms: _98  and  _100
REMARK   41  A    between atoms: _100  and  _101
REMARK   42  A    between atoms: _100  and  _103
REMARK   43  A    between atoms: _103  and  _104
REMARK   44  A    between atoms: _107  and  _109
REMARK   45  A    between atoms: _109  and  _110
REMARK   46  A    between atoms: _109  and  _112
REMARK   47  A    between atoms: _112  and  _113
REMARK   48  A    between atoms: _115  and  _117
REMARK   49  A    between atoms: _117  and  _118
REMARK   50  A    between atoms: _117  and  _120
REMARK   51  A    between atoms: _120  and  _121
REMARK   52  A    between atoms: _123  and  _125
REMARK   53  A    between atoms: _125  and  _126
REMARK   54  A    between atoms: _125  and  _128
REMARK   55  A    between atoms: _128  and  _129
REMARK   56  A    between atoms: _129  and  _130
REMARK   57  A    between atoms: _130  and  _131
REMARK   58  A    between atoms: _131  and  _132
REMARK   59  A    between atoms: _136  and  _138
REMARK   60  A    between atoms: _138  and  _139
REMARK   61  A    between atoms: _138  and  _141
REMARK   62  A    between atoms: _144  and  _146
REMARK   63  A    between atoms: _146  and  _147
REMARK   64  A    between atoms: _146  and  _149
REMARK   65  A    between atoms: _149  and  _150
REMARK   66  A    between atoms: _150  and  _151
REMARK   67  A    between atoms: _151  and  _152
REMARK   68  A    between atoms: _161  and  _163
REMARK   69  A    between atoms: _163  and  _164
REMARK   70  A    between atoms: _163  and  _166
REMARK   71  A    between atoms: _166  and  _167
REMARK   72  A    between atoms: _167  and  _168
REMARK   73  A    between atoms: _171  and  _173
REMARK   74  A    between atoms: _173  and  _174
REMARK   75  A    between atoms: _173  and  _176
REMARK   76  A    between atoms: _176  and  _177
REMARK   77  A    between atoms: _177  and  _178
REMARK   78  A    between atoms: _183  and  _185
REMARK   79  A    between atoms: _185  and  _186
REMARK   80  A    between atoms: _185  and  _188
REMARK   81  A    between atoms: _188  and  _189
REMARK   82  A    between atoms: _189  and  _190
REMARK   83  A    between atoms: _190  and  _191
REMARK   84  A    between atoms: _191  and  _192
REMARK   85  A    between atoms: _196  and  _198
REMARK   86  A    between atoms: _198  and  _199
REMARK   87  A    between atoms: _198  and  _201
REMARK   88  A    between atoms: _201  and  _202
REMARK   89  A    between atoms: _205  and  _207
REMARK   90  A    between atoms: _207  and  _208
REMARK   91  A    between atoms: _207  and  _210
REMARK   92  A    between atoms: _210  and  _211
REMARK   93  A    between atoms: _211  and  _212
REMARK   94  A    between atoms: _212  and  _213
REMARK   95  A    between atoms: _222  and  _224
REMARK   96  A    between atoms: _224  and  _225
REMARK   97  A    between atoms: _224  and  _227
REMARK   98  A    between atoms: _227  and  _228
REMARK   99  A    between atoms: _228  and  _229
REMARK  100  A    between atoms: _232  and  _234
REMARK  101  A    between atoms: _234  and  _235
REMARK  102  A    between atoms: _234  and  _237
REMARK  103  A    between atoms: _237  and  _238
REMARK  104  A    between atoms: _241  and  _243
REMARK  105  A    between atoms: _243  and  _244
REMARK  106  A    between atoms: _243  and  _246
REMARK  107  A    between atoms: _246  and  _247
REMARK  108  A    between atoms: _252  and  _253
REMARK  109  A    between atoms: _255  and  _257
REMARK  110  A    between atoms: _257  and  _258
REMARK  111  A    between atoms: _257  and  _260
REMARK  112  A    between atoms: _260  and  _261
REMARK  113  A    between atoms: _261  and  _262
REMARK  114  A    between atoms: _262  and  _263
REMARK  115  A    between atoms: _272  and  _274
REMARK  116  A    between atoms: _274  and  _275
REMARK  117  A    between atoms: _274  and  _277
REMARK  118  A    between atoms: _277  and  _278
REMARK  119  A    between atoms: _278  and  _279
REMARK  120  A    between atoms: _279  and  _280
REMARK  121  A    between atoms: _280  and  _281
REMARK  122  A    between atoms: _285  and  _287
REMARK  123  A    between atoms: _287  and  _288
REMARK  124  A    between atoms: _287  and  _290
REMARK  125  A    between atoms: _290  and  _291
REMARK  126  A    between atoms: _296  and  _298
REMARK  127  A    between atoms: _298  and  _299
REMARK  128  A    between atoms: _298  and  _301
REMARK  129  A    between atoms: _301  and  _302
REMARK  130  A    between atoms: _302  and  _303
REMARK                            x       y       z     vdW  Elec       q    Type
REMARK                         _______ _______ _______ _____ _____    ______ ____
ROOT
ATOM      1  O   HOH     1      20.158   1.122  21.766  0.00  0.00    +0.000 OA
ENDROOT
TORSDOF 0
REMARK  Name = ../refined-set-2016/1n4k/1n4k_pocket.pdb
REMARK  130 active torsions:
REMARK  status: ('A' for Active; 'I' for Inactive)
REMARK    1  A    between atoms: _1  and  _3
REMARK    2  A    between atoms: _3  and  _4
REMARK    3  A    between atoms: _3  and  _6
REMARK    4  A    between atoms: _6  and  _7
REMARK    5  A    between atoms: _7  and  _8
REMARK    6  A    between atoms: _8  and  _9
REMARK    7  A    between atoms: _18  and  _20
REMARK    8  A    between atoms: _20  and  _21
REMARK    9  A    between atoms: _20  and  _23
REMARK   10  A    between atoms: _23  and  _24
REMARK   11  A    between atoms: _27  and  _29
REMARK   12  A    between atoms: _29  and  _30
REMARK   13  A    between atoms: _29  and  _32
REMARK   14  A    between atoms: _32  and  _33
REMARK   15  A    between atoms: _36  and  _38
REMARK   16  A    between atoms: _38  and  _39
REMARK   17  A    between atoms: _41  and  _43
REMARK   18  A    between atoms: _43  and  _44
REMARK   19  A    between atoms: _43  and  _46
REMARK   20  A    between atoms: _46  and  _47
REMARK   21  A    between atoms: _47  and  _48
REMARK   22  A    between atoms: _48  and  _49
REMARK   23  A    between atoms: _58  and  _60
REMARK   24  A    between atoms: _60  and  _61
REMARK   25  A    between atoms: _60  and  _63
REMARK   26  A    between atoms: _63  and  _64
REMARK   27  A    between atoms: _64  and  _65
REMARK   28  A    between atoms: _70  and  _72
REMARK   29  A    between atoms: _72  and  _73
REMARK   30  A    between atoms: _72  and  _75
REMARK   31  A    between atoms: _75  and  _76
REMARK   32  A    between atoms: _78  and  _80
REMARK   33  A    between atoms: _80  and  _81
REMARK   34  A    between atoms: _84  and  _86
REMARK   35  A    between atoms: _86  and  _87
REMARK   36  A    between atoms: _86  and  _89
REMARK   37  A    between atoms: _89  and  _90
REMARK   38  A    between atoms: _92  and  _94
REMARK   39  A    between atoms: _94  and  _95
REMARK   40  A    between atoms: _98  and  _100
REMARK   41  A    between atoms: _100  and  _101
REMARK   42  A    between atoms: _100  and  _103
REMARK   43  A    between atoms: _103  and  _104
REMARK   44  A    between atoms: _107  and  _109
REMARK   45  A    between atoms: _109  and  _110
REMARK   46  A    between atoms: _109  and  _112
REMARK   47  A    between atoms: _112  and  _113
REMARK   48  A    between atoms: _115  and  _117
REMARK   49  A    between atoms: _117  and  _118
REMARK   50  A    between atoms: _117  and  _120
REMARK   51  A    between atoms: _120  and  _121
REMARK   52  A    between atoms: _123  and  _125
REMARK   53  A    between atoms: _125  and  _126
REMARK   54  A    between atoms: _125  and  _128
REMARK   55  A    between atoms: _128  and  _129
REMARK   56  A    between atoms: _129  and  _130
REMARK   57  A    between atoms: _130  and  _131
REMARK   58  A    between atoms: _131  and  _132
REMARK   59  A    between atoms: _136  and  _138
REMARK   60  A    between atoms: _138  and  _139
REMARK   61  A    between atoms: _138  and  _141
REMARK   62  A    between atoms: _144  and  _146
REMARK   63  A    between atoms: _146  and  _147
REMARK   64  A    between atoms: _146  and  _149
REMARK   65  A    between atoms: _149  and  _150
REMARK   66  A    between atoms: _150  and  _151
REMARK   67  A    between atoms: _151  and  _152
REMARK   68  A    between atoms: _161  and  _163
REMARK   69  A    between atoms: _163  and  _164
REMARK   70  A    between atoms: _163  and  _166
REMARK   71  A    between atoms: _166  and  _167
REMARK   72  A    between atoms: _167  and  _168
REMARK   73  A    between atoms: _171  and  _173
REMARK   74  A    between atoms: _173  and  _174
REMARK   75  A    between atoms: _173  and  _176
REMARK   76  A    between atoms: _176  and  _177
REMARK   77  A    between atoms: _177  and  _178
REMARK   78  A    between atoms: _183  and  _185
REMARK   79  A    between atoms: _185  and  _186
REMARK   80  A    between atoms: _185  and  _188
REMARK   81  A    between atoms: _188  and  _189
REMARK   82  A    between atoms: _189  and  _190
REMARK   83  A    between atoms: _190  and  _191
REMARK   84  A    between atoms: _191  and  _192
REMARK   85  A    between atoms: _196  and  _198
REMARK   86  A    between atoms: _198  and  _199
REMARK   87  A    between atoms: _198  and  _201
REMARK   88  A    between atoms: _201  and  _202
REMARK   89  A    between atoms: _205  and  _207
REMARK   90  A    between atoms: _207  and  _208
REMARK   91  A    between atoms: _207  and  _210
REMARK   92  A    between atoms: _210  and  _211
REMARK   93  A    between atoms: _211  and  _212
REMARK   94  A    between atoms: _212  and  _213
REMARK   95  A    between atoms: _222  and  _224
REMARK   96  A    between atoms: _224  and  _225
REMARK   97  A    between atoms: _224  and  _227
REMARK   98  A    between atoms: _227  and  _228
REMARK   99  A    between atoms: _228  and  _229
REMARK  100  A    between atoms: _232  and  _234
REMARK  101  A    between atoms: _234  and  _235
REMARK  102  A    between atoms: _234  and  _237
REMARK  103  A    between atoms: _237  and  _238
REMARK  104  A    between atoms: _241  and  _243
REMARK  105  A    between atoms: _243  and  _244
REMARK  106  A    between atoms: _243  and  _246
REMARK  107  A    between atoms: _246  and  _247
REMARK  108  A    between atoms: _252  and  _253
REMARK  109  A    between atoms: _255  and  _257
REMARK  110  A    between atoms: _257  and  _258
REMARK  111  A    between atoms: _257  and  _260
REMARK  112  A    between atoms: _260  and  _261
REMARK  113  A    between atoms: _261  and  _262
REMARK  114  A    between atoms: _262  and  _263
REMARK  115  A    between atoms: _272  and  _274
REMARK  116  A    between atoms: _274  and  _275
REMARK  117  A    between atoms: _274  and  _277
REMARK  118  A    between atoms: _277  and  _278
REMARK  119  A    between atoms: _278  and  _279
REMARK  120  A    between atoms: _279  and  _280
REMARK  121  A    between atoms: _280  and  _281
REMARK  122  A    between atoms: _285  and  _287
REMARK  123  A    between atoms: _287  and  _288
REMARK  124  A    between atoms: _287  and  _290
REMARK  125  A    between atoms: _290  and  _291
REMARK  126  A    between atoms: _296  and  _298
REMARK  127  A    between atoms: _298  and  _299
REMARK  128  A    between atoms: _298  and  _301
REMARK  129  A    between atoms: _301  and  _302
REMARK  130  A    between atoms: _302  and  _303
REMARK                            x       y       z     vdW  Elec       q    Type
REMARK                         _______ _______ _______ _____ _____    ______ ____
ROOT
ATOM      1  O   HOH     1      16.738  -1.656  21.024  0.00  0.00    +0.000 OA
ENDROOT
TORSDOF 0
REMARK  Name = ../refined-set-2016/1n4k/1n4k_pocket.pdb
REMARK  130 active torsions:
REMARK  status: ('A' for Active; 'I' for Inactive)
REMARK    1  A    between atoms: _1  and  _3
REMARK    2  A    between atoms: _3  and  _4
REMARK    3  A    between atoms: _3  and  _6
REMARK    4  A    between atoms: _6  and  _7
REMARK    5  A    between atoms: _7  and  _8
REMARK    6  A    between atoms: _8  and  _9
REMARK    7  A    between atoms: _18  and  _20
REMARK    8  A    between atoms: _20  and  _21
REMARK    9  A    between atoms: _20  and  _23
REMARK   10  A    between atoms: _23  and  _24
REMARK   11  A    between atoms: _27  and  _29
REMARK   12  A    between atoms: _29  and  _30
REMARK   13  A    between atoms: _29  and  _32
REMARK   14  A    between atoms: _32  and  _33
REMARK   15  A    between atoms: _36  and  _38
REMARK   16  A    between atoms: _38  and  _39
REMARK   17  A    between atoms: _41  and  _43
REMARK   18  A    between atoms: _43  and  _44
REMARK   19  A    between atoms: _43  and  _46
REMARK   20  A    between atoms: _46  and  _47
REMARK   21  A    between atoms: _47  and  _48
REMARK   22  A    between atoms: _48  and  _49
REMARK   23  A    between atoms: _58  and  _60
REMARK   24  A    between atoms: _60  and  _61
REMARK   25  A    between atoms: _60  and  _63
REMARK   26  A    between atoms: _63  and  _64
REMARK   27  A    between atoms: _64  and  _65
REMARK   28  A    between atoms: _70  and  _72
REMARK   29  A    between atoms: _72  and  _73
REMARK   30  A    between atoms: _72  and  _75
REMARK   31  A    between atoms: _75  and  _76
REMARK   32  A    between atoms: _78  and  _80
REMARK   33  A    between atoms: _80  and  _81
REMARK   34  A    between atoms: _84  and  _86
REMARK   35  A    between atoms: _86  and  _87
REMARK   36  A    between atoms: _86  and  _89
REMARK   37  A    between atoms: _89  and  _90
REMARK   38  A    between atoms: _92  and  _94
REMARK   39  A    between atoms: _94  and  _95
REMARK   40  A    between atoms: _98  and  _100
REMARK   41  A    between atoms: _100  and  _101
REMARK   42  A    between atoms: _100  and  _103
REMARK   43  A    between atoms: _103  and  _104
REMARK   44  A    between atoms: _107  and  _109
REMARK   45  A    between atoms: _109  and  _110
REMARK   46  A    between atoms: _109  and  _112
REMARK   47  A    between atoms: _112  and  _113
REMARK   48  A    between atoms: _115  and  _117
REMARK   49  A    between atoms: _117  and  _118
REMARK   50  A    between atoms: _117  and  _120
REMARK   51  A    between atoms: _120  and  _121
REMARK   52  A    between atoms: _123  and  _125
REMARK   53  A    between atoms: _125  and  _126
REMARK   54  A    between atoms: _125  and  _128
REMARK   55  A    between atoms: _128  and  _129
REMARK   56  A    between atoms: _129  and  _130
REMARK   57  A    between atoms: _130  and  _131
REMARK   58  A    between atoms: _131  and  _132
REMARK   59  A    between atoms: _136  and  _138
REMARK   60  A    between atoms: _138  and  _139
REMARK   61  A    between atoms: _138  and  _141
REMARK   62  A    between atoms: _144  and  _146
REMARK   63  A    between atoms: _146  and  _147
REMARK   64  A    between atoms: _146  and  _149
REMARK   65  A    between atoms: _149  and  _150
REMARK   66  A    between atoms: _150  and  _151
REMARK   67  A    between atoms: _151  and  _152
REMARK   68  A    between atoms: _161  and  _163
REMARK   69  A    between atoms: _163  and  _164
REMARK   70  A    between atoms: _163  and  _166
REMARK   71  A    between atoms: _166  and  _167
REMARK   72  A    between atoms: _167  and  _168
REMARK   73  A    between atoms: _171  and  _173
REMARK   74  A    between atoms: _173  and  _174
REMARK   75  A    between atoms: _173  and  _176
REMARK   76  A    between atoms: _176  and  _177
REMARK   77  A    between atoms: _177  and  _178
REMARK   78  A    between atoms: _183  and  _185
REMARK   79  A    between atoms: _185  and  _186
REMARK   80  A    between atoms: _185  and  _188
REMARK   81  A    between atoms: _188  and  _189
REMARK   82  A    between atoms: _189  and  _190
REMARK   83  A    between atoms: _190  and  _191
REMARK   84  A    between atoms: _191  and  _192
REMARK   85  A    between atoms: _196  and  _198
REMARK   86  A    between atoms: _198  and  _199
REMARK   87  A    between atoms: _198  and  _201
REMARK   88  A    between atoms: _201  and  _202
REMARK   89  A    between atoms: _205  and  _207
REMARK   90  A    between atoms: _207  and  _208
REMARK   91  A    between atoms: _207  and  _210
REMARK   92  A    between atoms: _210  and  _211
REMARK   93  A    between atoms: _211  and  _212
REMARK   94  A    between atoms: _212  and  _213
REMARK   95  A    between atoms: _222  and  _224
REMARK   96  A    between atoms: _224  and  _225
REMARK   97  A    between atoms: _224  and  _227
REMARK   98  A    between atoms: _227  and  _228
REMARK   99  A    between atoms: _228  and  _229
REMARK  100  A    between atoms: _232  and  _234
REMARK  101  A    between atoms: _234  and  _235
REMARK  102  A    between atoms: _234  and  _237
REMARK  103  A    between atoms: _237  and  _238
REMARK  104  A    between atoms: _241  and  _243
REMARK  105  A    between atoms: _243  and  _244
REMARK  106  A    between atoms: _243  and  _246
REMARK  107  A    between atoms: _246  and  _247
REMARK  108  A    between atoms: _252  and  _253
REMARK  109  A    between atoms: _255  and  _257
REMARK  110  A    between atoms: _257  and  _258
REMARK  111  A    between atoms: _257  and  _260
REMARK  112  A    between atoms: _260  and  _261
REMARK  113  A    between atoms: _261  and  _262
REMARK  114  A    between atoms: _262  and  _263
REMARK  115  A    between atoms: _272  and  _274
REMARK  116  A    between atoms: _274  and  _275
REMARK  117  A    between atoms: _274  and  _277
REMARK  118  A    between atoms: _277  and  _278
REMARK  119  A    between atoms: _278  and  _279
REMARK  120  A    between atoms: _279  and  _280
REMARK  121  A    between atoms: _280  and  _281
REMARK  122  A    between atoms: _285  and  _287
REMARK  123  A    between atoms: _287  and  _288
REMARK  124  A    between atoms: _287  and  _290
REMARK  125  A    between atoms: _290  and  _291
REMARK  126  A    between atoms: _296  and  _298
REMARK  127  A    between atoms: _298  and  _299
REMARK  128  A    between atoms: _298  and  _301
REMARK  129  A    between atoms: _301  and  _302
REMARK  130  A    between atoms: _302  and  _303
REMARK                            x       y       z     vdW  Elec       q    Type
REMARK                         _______ _______ _______ _____ _____    ______ ____
ROOT
ATOM      1  O   HOH     1      23.012  -6.973  10.619  0.00  0.00    +0.000 OA
ENDROOT
TORSDOF 0
REMARK  Name = ../refined-set-2016/1n4k/1n4k_pocket.pdb
REMARK  130 active torsions:
REMARK  status: ('A' for Active; 'I' for Inactive)
REMARK    1  A    between atoms: _1  and  _3
REMARK    2  A    between atoms: _3  and  _4
REMARK    3  A    between atoms: _3  and  _6
REMARK    4  A    between atoms: _6  and  _7
REMARK    5  A    between atoms: _7  and  _8
REMARK    6  A    between atoms: _8  and  _9
REMARK    7  A    between atoms: _18  and  _20
REMARK    8  A    between atoms: _20  and  _21
REMARK    9  A    between atoms: _20  and  _23
REMARK   10  A    between atoms: _23  and  _24
REMARK   11  A    between atoms: _27  and  _29
REMARK   12  A    between atoms: _29  and  _30
REMARK   13  A    between atoms: _29  and  _32
REMARK   14  A    between atoms: _32  and  _33
REMARK   15  A    between atoms: _36  and  _38
REMARK   16  A    between atoms: _38  and  _39
REMARK   17  A    between atoms: _41  and  _43
REMARK   18  A    between atoms: _43  and  _44
REMARK   19  A    between atoms: _43  and  _46
REMARK   20  A    between atoms: _46  and  _47
REMARK   21  A    between atoms: _47  and  _48
REMARK   22  A    between atoms: _48  and  _49
REMARK   23  A    between atoms: _58  and  _60
REMARK   24  A    between atoms: _60  and  _61
REMARK   25  A    between atoms: _60  and  _63
REMARK   26  A    between atoms: _63  and  _64
REMARK   27  A    between atoms: _64  and  _65
REMARK   28  A    between atoms: _70  and  _72
REMARK   29  A    between atoms: _72  and  _73
REMARK   30  A    between atoms: _72  and  _75
REMARK   31  A    between atoms: _75  and  _76
REMARK   32  A    between atoms: _78  and  _80
REMARK   33  A    between atoms: _80  and  _81
REMARK   34  A    between atoms: _84  and  _86
REMARK   35  A    between atoms: _86  and  _87
REMARK   36  A    between atoms: _86  and  _89
REMARK   37  A    between atoms: _89  and  _90
REMARK   38  A    between atoms: _92  and  _94
REMARK   39  A    between atoms: _94  and  _95
REMARK   40  A    between atoms: _98  and  _100
REMARK   41  A    between atoms: _100  and  _101
REMARK   42  A    between atoms: _100  and  _103
REMARK   43  A    between atoms: _103  and  _104
REMARK   44  A    between atoms: _107  and  _109
REMARK   45  A    between atoms: _109  and  _110
REMARK   46  A    between atoms: _109  and  _112
REMARK   47  A    between atoms: _112  and  _113
REMARK   48  A    between atoms: _115  and  _117
REMARK   49  A    between atoms: _117  and  _118
REMARK   50  A    between atoms: _117  and  _120
REMARK   51  A    between atoms: _120  and  _121
REMARK   52  A    between atoms: _123  and  _125
REMARK   53  A    between atoms: _125  and  _126
REMARK   54  A    between atoms: _125  and  _128
REMARK   55  A    between atoms: _128  and  _129
REMARK   56  A    between atoms: _129  and  _130
REMARK   57  A    between atoms: _130  and  _131
REMARK   58  A    between atoms: _131  and  _132
REMARK   59  A    between atoms: _136  and  _138
REMARK   60  A    between atoms: _138  and  _139
REMARK   61  A    between atoms: _138  and  _141
REMARK   62  A    between atoms: _144  and  _146
REMARK   63  A    between atoms: _146  and  _147
REMARK   64  A    between atoms: _146  and  _149
REMARK   65  A    between atoms: _149  and  _150
REMARK   66  A    between atoms: _150  and  _151
REMARK   67  A    between atoms: _151  and  _152
REMARK   68  A    between atoms: _161  and  _163
REMARK   69  A    between atoms: _163  and  _164
REMARK   70  A    between atoms: _163  and  _166
REMARK   71  A    between atoms: _166  and  _167
REMARK   72  A    between atoms: _167  and  _168
REMARK   73  A    between atoms: _171  and  _173
REMARK   74  A    between atoms: _173  and  _174
REMARK   75  A    between atoms: _173  and  _176
REMARK   76  A    between atoms: _176  and  _177
REMARK   77  A    between atoms: _177  and  _178
REMARK   78  A    between atoms: _183  and  _185
REMARK   79  A    between atoms: _185  and  _186
REMARK   80  A    between atoms: _185  and  _188
REMARK   81  A    between atoms: _188  and  _189
REMARK   82  A    between atoms: _189  and  _190
REMARK   83  A    between atoms: _190  and  _191
REMARK   84  A    between atoms: _191  and  _192
REMARK   85  A    between atoms: _196  and  _198
REMARK   86  A    between atoms: _198  and  _199
REMARK   87  A    between atoms: _198  and  _201
REMARK   88  A    between atoms: _201  and  _202
REMARK   89  A    between atoms: _205  and  _207
REMARK   90  A    between atoms: _207  and  _208
REMARK   91  A    between atoms: _207  and  _210
REMARK   92  A    between atoms: _210  and  _211
REMARK   93  A    between atoms: _211  and  _212
REMARK   94  A    between atoms: _212  and  _213
REMARK   95  A    between atoms: _222  and  _224
REMARK   96  A    between atoms: _224  and  _225
REMARK   97  A    between atoms: _224  and  _227
REMARK   98  A    between atoms: _227  and  _228
REMARK   99  A    between atoms: _228  and  _229
REMARK  100  A    between atoms: _232  and  _234
REMARK  101  A    between atoms: _234  and  _235
REMARK  102  A    between atoms: _234  and  _237
REMARK  103  A    between atoms: _237  and  _238
REMARK  104  A    between atoms: _241  and  _243
REMARK  105  A    between atoms: _243  and  _244
REMARK  106  A    between atoms: _243  and  _246
REMARK  107  A    between atoms: _246  and  _247
REMARK  108  A    between atoms: _252  and  _253
REMARK  109  A    between atoms: _255  and  _257
REMARK  110  A    between atoms: _257  and  _258
REMARK  111  A    between atoms: _257  and  _260
REMARK  112  A    between atoms: _260  and  _261
REMARK  113  A    between atoms: _261  and  _262
REMARK  114  A    between atoms: _262  and  _263
REMARK  115  A    between atoms: _272  and  _274
REMARK  116  A    between atoms: _274  and  _275
REMARK  117  A    between atoms: _274  and  _277
REMARK  118  A    between atoms: _277  and  _278
REMARK  119  A    between atoms: _278  and  _279
REMARK  120  A    between atoms: _279  and  _280
REMARK  121  A    between atoms: _280  and  _281
REMARK  122  A    between atoms: _285  and  _287
REMARK  123  A    between atoms: _287  and  _288
REMARK  124  A    between atoms: _287  and  _290
REMARK  125  A    between atoms: _290  and  _291
REMARK  126  A    between atoms: _296  and  _298
REMARK  127  A    between atoms: _298  and  _299
REMARK  128  A    between atoms: _298  and  _301
REMARK  129  A    between atoms: _301  and  _302
REMARK  130  A    between atoms: _302  and  _303
REMARK                            x       y       z     vdW  Elec       q    Type
REMARK                         _______ _______ _______ _____ _____    ______ ____
ROOT
ATOM      1  O   HOH     1      21.470   2.507   1.147  0.00  0.00    +0.000 OA
ENDROOT
TORSDOF 0
REMARK  Name = ../refined-set-2016/1n4k/1n4k_pocket.pdb
REMARK  130 active torsions:
REMARK  status: ('A' for Active; 'I' for Inactive)
REMARK    1  A    between atoms: _1  and  _3
REMARK    2  A    between atoms: _3  and  _4
REMARK    3  A    between atoms: _3  and  _6
REMARK    4  A    between atoms: _6  and  _7
REMARK    5  A    between atoms: _7  and  _8
REMARK    6  A    between atoms: _8  and  _9
REMARK    7  A    between atoms: _18  and  _20
REMARK    8  A    between atoms: _20  and  _21
REMARK    9  A    between atoms: _20  and  _23
REMARK   10  A    between atoms: _23  and  _24
REMARK   11  A    between atoms: _27  and  _29
REMARK   12  A    between atoms: _29  and  _30
REMARK   13  A    between atoms: _29  and  _32
REMARK   14  A    between atoms: _32  and  _33
REMARK   15  A    between atoms: _36  and  _38
REMARK   16  A    between atoms: _38  and  _39
REMARK   17  A    between atoms: _41  and  _43
REMARK   18  A    between atoms: _43  and  _44
REMARK   19  A    between atoms: _43  and  _46
REMARK   20  A    between atoms: _46  and  _47
REMARK   21  A    between atoms: _47  and  _48
REMARK   22  A    between atoms: _48  and  _49
REMARK   23  A    between atoms: _58  and  _60
REMARK   24  A    between atoms: _60  and  _61
REMARK   25  A    between atoms: _60  and  _63
REMARK   26  A    between atoms: _63  and  _64
REMARK   27  A    between atoms: _64  and  _65
REMARK   28  A    between atoms: _70  and  _72
REMARK   29  A    between atoms: _72  and  _73
REMARK   30  A    between atoms: _72  and  _75
REMARK   31  A    between atoms: _75  and  _76
REMARK   32  A    between atoms: _78  and  _80
REMARK   33  A    between atoms: _80  and  _81
REMARK   34  A    between atoms: _84  and  _86
REMARK   35  A    between atoms: _86  and  _87
REMARK   36  A    between atoms: _86  and  _89
REMARK   37  A    between atoms: _89  and  _90
REMARK   38  A    between atoms: _92  and  _94
REMARK   39  A    between atoms: _94  and  _95
REMARK   40  A    between atoms: _98  and  _100
REMARK   41  A    between atoms: _100  and  _101
REMARK   42  A    between atoms: _100  and  _103
REMARK   43  A    between atoms: _103  and  _104
REMARK   44  A    between atoms: _107  and  _109
REMARK   45  A    between atoms: _109  and  _110
REMARK   46  A    between atoms: _109  and  _112
REMARK   47  A    between atoms: _112  and  _113
REMARK   48  A    between atoms: _115  and  _117
REMARK   49  A    between atoms: _117  and  _118
REMARK   50  A    between atoms: _117  and  _120
REMARK   51  A    between atoms: _120  and  _121
REMARK   52  A    between atoms: _123  and  _125
REMARK   53  A    between atoms: _125  and  _126
REMARK   54  A    between atoms: _125  and  _128
REMARK   55  A    between atoms: _128  and  _129
REMARK   56  A    between atoms: _129  and  _130
REMARK   57  A    between atoms: _130  and  _131
REMARK   58  A    between atoms: _131  and  _132
REMARK   59  A    between atoms: _136  and  _138
REMARK   60  A    between atoms: _138  and  _139
REMARK   61  A    between atoms: _138  and  _141
REMARK   62  A    between atoms: _144  and  _146
REMARK   63  A    between atoms: _146  and  _147
REMARK   64  A    between atoms: _146  and  _149
REMARK   65  A    between atoms: _149  and  _150
REMARK   66  A    between atoms: _150  and  _151
REMARK   67  A    between atoms: _151  and  _152
REMARK   68  A    between atoms: _161  and  _163
REMARK   69  A    between atoms: _163  and  _164
REMARK   70  A    between atoms: _163  and  _166
REMARK   71  A    between atoms: _166  and  _167
REMARK   72  A    between atoms: _167  and  _168
REMARK   73  A    between atoms: _171  and  _173
REMARK   74  A    between atoms: _173  and  _174
REMARK   75  A    between atoms: _173  and  _176
REMARK   76  A    between atoms: _176  and  _177
REMARK   77  A    between atoms: _177  and  _178
REMARK   78  A    between atoms: _183  and  _185
REMARK   79  A    between atoms: _185  and  _186
REMARK   80  A    between atoms: _185  and  _188
REMARK   81  A    between atoms: _188  and  _189
REMARK   82  A    between atoms: _189  and  _190
REMARK   83  A    between atoms: _190  and  _191
REMARK   84  A    between atoms: _191  and  _192
REMARK   85  A    between atoms: _196  and  _198
REMARK   86  A    between atoms: _198  and  _199
REMARK   87  A    between atoms: _198  and  _201
REMARK   88  A    between atoms: _201  and  _202
REMARK   89  A    between atoms: _205  and  _207
REMARK   90  A    between atoms: _207  and  _208
REMARK   91  A    between atoms: _207  and  _210
REMARK   92  A    between atoms: _210  and  _211
REMARK   93  A    between atoms: _211  and  _212
REMARK   94  A    between atoms: _212  and  _213
REMARK   95  A    between atoms: _222  and  _224
REMARK   96  A    between atoms: _224  and  _225
REMARK   97  A    between atoms: _224  and  _227
REMARK   98  A    between atoms: _227  and  _228
REMARK   99  A    between atoms: _228  and  _229
REMARK  100  A    between atoms: _232  and  _234
REMARK  101  A    between atoms: _234  and  _235
REMARK  102  A    between atoms: _234  and  _237
REMARK  103  A    between atoms: _237  and  _238
REMARK  104  A    between atoms: _241  and  _243
REMARK  105  A    between atoms: _243  and  _244
REMARK  106  A    between atoms: _243  and  _246
REMARK  107  A    between atoms: _246  and  _247
REMARK  108  A    between atoms: _252  and  _253
REMARK  109  A    between atoms: _255  and  _257
REMARK  110  A    between atoms: _257  and  _258
REMARK  111  A    between atoms: _257  and  _260
REMARK  112  A    between atoms: _260  and  _261
REMARK  113  A    between atoms: _261  and  _262
REMARK  114  A    between atoms: _262  and  _263
REMARK  115  A    between atoms: _272  and  _274
REMARK  116  A    between atoms: _274  and  _275
REMARK  117  A    between atoms: _274  and  _277
REMARK  118  A    between atoms: _277  and  _278
REMARK  119  A    between atoms: _278  and  _279
REMARK  120  A    between atoms: _279  and  _280
REMARK  121  A    between atoms: _280  and  _281
REMARK  122  A    between atoms: _285  and  _287
REMARK  123  A    between atoms: _287  and  _288
REMARK  124  A    between atoms: _287  and  _290
REMARK  125  A    between atoms: _290  and  _291
REMARK  126  A    between atoms: _296  and  _298
REMARK  127  A    between atoms: _298  and  _299
REMARK  128  A    between atoms: _298  and  _301
REMARK  129  A    between atoms: _301  and  _302
REMARK  130  A    between atoms: _302  and  _303
REMARK                            x       y       z     vdW  Elec       q    Type
REMARK                         _______ _______ _______ _____ _____    ______ ____
ROOT
ATOM      1  O   HOH     1      26.322   0.600   6.547  0.00  0.00    +0.000 OA
ENDROOT
TORSDOF 0
REMARK  Name = ../refined-set-2016/1n4k/1n4k_pocket.pdb
REMARK  130 active torsions:
REMARK  status: ('A' for Active; 'I' for Inactive)
REMARK    1  A    between atoms: _1  and  _3
REMARK    2  A    between atoms: _3  and  _4
REMARK    3  A    between atoms: _3  and  _6
REMARK    4  A    between atoms: _6  and  _7
REMARK    5  A    between atoms: _7  and  _8
REMARK    6  A    between atoms: _8  and  _9
REMARK    7  A    between atoms: _18  and  _20
REMARK    8  A    between atoms: _20  and  _21
REMARK    9  A    between atoms: _20  and  _23
REMARK   10  A    between atoms: _23  and  _24
REMARK   11  A    between atoms: _27  and  _29
REMARK   12  A    between atoms: _29  and  _30
REMARK   13  A    between atoms: _29  and  _32
REMARK   14  A    between atoms: _32  and  _33
REMARK   15  A    between atoms: _36  and  _38
REMARK   16  A    between atoms: _38  and  _39
REMARK   17  A    between atoms: _41  and  _43
REMARK   18  A    between atoms: _43  and  _44
REMARK   19  A    between atoms: _43  and  _46
REMARK   20  A    between atoms: _46  and  _47
REMARK   21  A    between atoms: _47  and  _48
REMARK   22  A    between atoms: _48  and  _49
REMARK   23  A    between atoms: _58  and  _60
REMARK   24  A    between atoms: _60  and  _61
REMARK   25  A    between atoms: _60  and  _63
REMARK   26  A    between atoms: _63  and  _64
REMARK   27  A    between atoms: _64  and  _65
REMARK   28  A    between atoms: _70  and  _72
REMARK   29  A    between atoms: _72  and  _73
REMARK   30  A    between atoms: _72  and  _75
REMARK   31  A    between atoms: _75  and  _76
REMARK   32  A    between atoms: _78  and  _80
REMARK   33  A    between atoms: _80  and  _81
REMARK   34  A    between atoms: _84  and  _86
REMARK   35  A    between atoms: _86  and  _87
REMARK   36  A    between atoms: _86  and  _89
REMARK   37  A    between atoms: _89  and  _90
REMARK   38  A    between atoms: _92  and  _94
REMARK   39  A    between atoms: _94  and  _95
REMARK   40  A    between atoms: _98  and  _100
REMARK   41  A    between atoms: _100  and  _101
REMARK   42  A    between atoms: _100  and  _103
REMARK   43  A    between atoms: _103  and  _104
REMARK   44  A    between atoms: _107  and  _109
REMARK   45  A    between atoms: _109  and  _110
REMARK   46  A    between atoms: _109  and  _112
REMARK   47  A    between atoms: _112  and  _113
REMARK   48  A    between atoms: _115  and  _117
REMARK   49  A    between atoms: _117  and  _118
REMARK   50  A    between atoms: _117  and  _120
REMARK   51  A    between atoms: _120  and  _121
REMARK   52  A    between atoms: _123  and  _125
REMARK   53  A    between atoms: _125  and  _126
REMARK   54  A    between atoms: _125  and  _128
REMARK   55  A    between atoms: _128  and  _129
REMARK   56  A    between atoms: _129  and  _130
REMARK   57  A    between atoms: _130  and  _131
REMARK   58  A    between atoms: _131  and  _132
REMARK   59  A    between atoms: _136  and  _138
REMARK   60  A    between atoms: _138  and  _139
REMARK   61  A    between atoms: _138  and  _141
REMARK   62  A    between atoms: _144  and  _146
REMARK   63  A    between atoms: _146  and  _147
REMARK   64  A    between atoms: _146  and  _149
REMARK   65  A    between atoms: _149  and  _150
REMARK   66  A    between atoms: _150  and  _151
REMARK   67  A    between atoms: _151  and  _152
REMARK   68  A    between atoms: _161  and  _163
REMARK   69  A    between atoms: _163  and  _164
REMARK   70  A    between atoms: _163  and  _166
REMARK   71  A    between atoms: _166  and  _167
REMARK   72  A    between atoms: _167  and  _168
REMARK   73  A    between atoms: _171  and  _173
REMARK   74  A    between atoms: _173  and  _174
REMARK   75  A    between atoms: _173  and  _176
REMARK   76  A    between atoms: _176  and  _177
REMARK   77  A    between atoms: _177  and  _178
REMARK   78  A    between atoms: _183  and  _185
REMARK   79  A    between atoms: _185  and  _186
REMARK   80  A    between atoms: _185  and  _188
REMARK   81  A    between atoms: _188  and  _189
REMARK   82  A    between atoms: _189  and  _190
REMARK   83  A    between atoms: _190  and  _191
REMARK   84  A    between atoms: _191  and  _192
REMARK   85  A    between atoms: _196  and  _198
REMARK   86  A    between atoms: _198  and  _199
REMARK   87  A    between atoms: _198  and  _201
REMARK   88  A    between atoms: _201  and  _202
REMARK   89  A    between atoms: _205  and  _207
REMARK   90  A    between atoms: _207  and  _208
REMARK   91  A    between atoms: _207  and  _210
REMARK   92  A    between atoms: _210  and  _211
REMARK   93  A    between atoms: _211  and  _212
REMARK   94  A    between atoms: _212  and  _213
REMARK   95  A    between atoms: _222  and  _224
REMARK   96  A    between atoms: _224  and  _225
REMARK   97  A    between atoms: _224  and  _227
REMARK   98  A    between atoms: _227  and  _228
REMARK   99  A    between atoms: _228  and  _229
REMARK  100  A    between atoms: _232  and  _234
REMARK  101  A    between atoms: _234  and  _235
REMARK  102  A    between atoms: _234  and  _237
REMARK  103  A    between atoms: _237  and  _238
REMARK  104  A    between atoms: _241  and  _243
REMARK  105  A    between atoms: _243  and  _244
REMARK  106  A    between atoms: _243  and  _246
REMARK  107  A    between atoms: _246  and  _247
REMARK  108  A    between atoms: _252  and  _253
REMARK  109  A    between atoms: _255  and  _257
REMARK  110  A    between atoms: _257  and  _258
REMARK  111  A    between atoms: _257  and  _260
REMARK  112  A    between atoms: _260  and  _261
REMARK  113  A    between atoms: _261  and  _262
REMARK  114  A    between atoms: _262  and  _263
REMARK  115  A    between atoms: _272  and  _274
REMARK  116  A    between atoms: _274  and  _275
REMARK  117  A    between atoms: _274  and  _277
REMARK  118  A    between atoms: _277  and  _278
REMARK  119  A    between atoms: _278  and  _279
REMARK  120  A    between atoms: _279  and  _280
REMARK  121  A    between atoms: _280  and  _281
REMARK  122  A    between atoms: _285  and  _287
REMARK  123  A    between atoms: _287  and  _288
REMARK  124  A    between atoms: _287  and  _290
REMARK  125  A    between atoms: _290  and  _291
REMARK  126  A    between atoms: _296  and  _298
REMARK  127  A    between atoms: _298  and  _299
REMARK  128  A    between atoms: _298  and  _301
REMARK  129  A    between atoms: _301  and  _302
REMARK  130  A    between atoms: _302  and  _303
REMARK                            x       y       z     vdW  Elec       q    Type
REMARK                         _______ _______ _______ _____ _____    ______ ____
ROOT
ATOM      1  O   HOH     1      27.803   3.372  14.721  0.00  0.00    +0.000 OA
ENDROOT
TORSDOF 0
REMARK  Name = ../refined-set-2016/1n4k/1n4k_pocket.pdb
REMARK  130 active torsions:
REMARK  status: ('A' for Active; 'I' for Inactive)
REMARK    1  A    between atoms: _1  and  _3
REMARK    2  A    between atoms: _3  and  _4
REMARK    3  A    between atoms: _3  and  _6
REMARK    4  A    between atoms: _6  and  _7
REMARK    5  A    between atoms: _7  and  _8
REMARK    6  A    between atoms: _8  and  _9
REMARK    7  A    between atoms: _18  and  _20
REMARK    8  A    between atoms: _20  and  _21
REMARK    9  A    between atoms: _20  and  _23
REMARK   10  A    between atoms: _23  and  _24
REMARK   11  A    between atoms: _27  and  _29
REMARK   12  A    between atoms: _29  and  _30
REMARK   13  A    between atoms: _29  and  _32
REMARK   14  A    between atoms: _32  and  _33
REMARK   15  A    between atoms: _36  and  _38
REMARK   16  A    between atoms: _38  and  _39
REMARK   17  A    between atoms: _41  and  _43
REMARK   18  A    between atoms: _43  and  _44
REMARK   19  A    between atoms: _43  and  _46
REMARK   20  A    between atoms: _46  and  _47
REMARK   21  A    between atoms: _47  and  _48
REMARK   22  A    between atoms: _48  and  _49
REMARK   23  A    between atoms: _58  and  _60
REMARK   24  A    between atoms: _60  and  _61
REMARK   25  A    between atoms: _60  and  _63
REMARK   26  A    between atoms: _63  and  _64
REMARK   27  A    between atoms: _64  and  _65
REMARK   28  A    between atoms: _70  and  _72
REMARK   29  A    between atoms: _72  and  _73
REMARK   30  A    between atoms: _72  and  _75
REMARK   31  A    between atoms: _75  and  _76
REMARK   32  A    between atoms: _78  and  _80
REMARK   33  A    between atoms: _80  and  _81
REMARK   34  A    between atoms: _84  and  _86
REMARK   35  A    between atoms: _86  and  _87
REMARK   36  A    between atoms: _86  and  _89
REMARK   37  A    between atoms: _89  and  _90
REMARK   38  A    between atoms: _92  and  _94
REMARK   39  A    between atoms: _94  and  _95
REMARK   40  A    between atoms: _98  and  _100
REMARK   41  A    between atoms: _100  and  _101
REMARK   42  A    between atoms: _100  and  _103
REMARK   43  A    between atoms: _103  and  _104
REMARK   44  A    between atoms: _107  and  _109
REMARK   45  A    between atoms: _109  and  _110
REMARK   46  A    between atoms: _109  and  _112
REMARK   47  A    between atoms: _112  and  _113
REMARK   48  A    between atoms: _115  and  _117
REMARK   49  A    between atoms: _117  and  _118
REMARK   50  A    between atoms: _117  and  _120
REMARK   51  A    between atoms: _120  and  _121
REMARK   52  A    between atoms: _123  and  _125
REMARK   53  A    between atoms: _125  and  _126
REMARK   54  A    between atoms: _125  and  _128
REMARK   55  A    between atoms: _128  and  _129
REMARK   56  A    between atoms: _129  and  _130
REMARK   57  A    between atoms: _130  and  _131
REMARK   58  A    between atoms: _131  and  _132
REMARK   59  A    between atoms: _136  and  _138
REMARK   60  A    between atoms: _138  and  _139
REMARK   61  A    between atoms: _138  and  _141
REMARK   62  A    between atoms: _144  and  _146
REMARK   63  A    between atoms: _146  and  _147
REMARK   64  A    between atoms: _146  and  _149
REMARK   65  A    between atoms: _149  and  _150
REMARK   66  A    between atoms: _150  and  _151
REMARK   67  A    between atoms: _151  and  _152
REMARK   68  A    between atoms: _161  and  _163
REMARK   69  A    between atoms: _163  and  _164
REMARK   70  A    between atoms: _163  and  _166
REMARK   71  A    between atoms: _166  and  _167
REMARK   72  A    between atoms: _167  and  _168
REMARK   73  A    between atoms: _171  and  _173
REMARK   74  A    between atoms: _173  and  _174
REMARK   75  A    between atoms: _173  and  _176
REMARK   76  A    between atoms: _176  and  _177
REMARK   77  A    between atoms: _177  and  _178
REMARK   78  A    between atoms: _183  and  _185
REMARK   79  A    between atoms: _185  and  _186
REMARK   80  A    between atoms: _185  and  _188
REMARK   81  A    between atoms: _188  and  _189
REMARK   82  A    between atoms: _189  and  _190
REMARK   83  A    between atoms: _190  and  _191
REMARK   84  A    between atoms: _191  and  _192
REMARK   85  A    between atoms: _196  and  _198
REMARK   86  A    between atoms: _198  and  _199
REMARK   87  A    between atoms: _198  and  _201
REMARK   88  A    between atoms: _201  and  _202
REMARK   89  A    between atoms: _205  and  _207
REMARK   90  A    between atoms: _207  and  _208
REMARK   91  A    between atoms: _207  and  _210
REMARK   92  A    between atoms: _210  and  _211
REMARK   93  A    between atoms: _211  and  _212
REMARK   94  A    between atoms: _212  and  _213
REMARK   95  A    between atoms: _222  and  _224
REMARK   96  A    between atoms: _224  and  _225
REMARK   97  A    between atoms: _224  and  _227
REMARK   98  A    between atoms: _227  and  _228
REMARK   99  A    between atoms: _228  and  _229
REMARK  100  A    between atoms: _232  and  _234
REMARK  101  A    between atoms: _234  and  _235
REMARK  102  A    between atoms: _234  and  _237
REMARK  103  A    between atoms: _237  and  _238
REMARK  104  A    between atoms: _241  and  _243
REMARK  105  A    between atoms: _243  and  _244
REMARK  106  A    between atoms: _243  and  _246
REMARK  107  A    between atoms: _246  and  _247
REMARK  108  A    between atoms: _252  and  _253
REMARK  109  A    between atoms: _255  and  _257
REMARK  110  A    between atoms: _257  and  _258
REMARK  111  A    between atoms: _257  and  _260
REMARK  112  A    between atoms: _260  and  _261
REMARK  113  A    between atoms: _261  and  _262
REMARK  114  A    between atoms: _262  and  _263
REMARK  115  A    between atoms: _272  and  _274
REMARK  116  A    between atoms: _274  and  _275
REMARK  117  A    between atoms: _274  and  _277
REMARK  118  A    between atoms: _277  and  _278
REMARK  119  A    between atoms: _278  and  _279
REMARK  120  A    between atoms: _279  and  _280
REMARK  121  A    between atoms: _280  and  _281
REMARK  122  A    between atoms: _285  and  _287
REMARK  123  A    between atoms: _287  and  _288
REMARK  124  A    between atoms: _287  and  _290
REMARK  125  A    between atoms: _290  and  _291
REMARK  126  A    between atoms: _296  and  _298
REMARK  127  A    between atoms: _298  and  _299
REMARK  128  A    between atoms: _298  and  _301
REMARK  129  A    between atoms: _301  and  _302
REMARK  130  A    between atoms: _302  and  _303
REMARK                            x       y       z     vdW  Elec       q    Type
REMARK                         _______ _______ _______ _____ _____    ______ ____
ROOT
ATOM      1  O   HOH     1      30.209  -4.135  12.636  0.00  0.00    +0.000 OA
ENDROOT
TORSDOF 0
REMARK  Name = ../refined-set-2016/1n4k/1n4k_pocket.pdb
REMARK  130 active torsions:
REMARK  status: ('A' for Active; 'I' for Inactive)
REMARK    1  A    between atoms: _1  and  _3
REMARK    2  A    between atoms: _3  and  _4
REMARK    3  A    between atoms: _3  and  _6
REMARK    4  A    between atoms: _6  and  _7
REMARK    5  A    between atoms: _7  and  _8
REMARK    6  A    between atoms: _8  and  _9
REMARK    7  A    between atoms: _18  and  _20
REMARK    8  A    between atoms: _20  and  _21
REMARK    9  A    between atoms: _20  and  _23
REMARK   10  A    between atoms: _23  and  _24
REMARK   11  A    between atoms: _27  and  _29
REMARK   12  A    between atoms: _29  and  _30
REMARK   13  A    between atoms: _29  and  _32
REMARK   14  A    between atoms: _32  and  _33
REMARK   15  A    between atoms: _36  and  _38
REMARK   16  A    between atoms: _38  and  _39
REMARK   17  A    between atoms: _41  and  _43
REMARK   18  A    between atoms: _43  and  _44
REMARK   19  A    between atoms: _43  and  _46
REMARK   20  A    between atoms: _46  and  _47
REMARK   21  A    between atoms: _47  and  _48
REMARK   22  A    between atoms: _48  and  _49
REMARK   23  A    between atoms: _58  and  _60
REMARK   24  A    between atoms: _60  and  _61
REMARK   25  A    between atoms: _60  and  _63
REMARK   26  A    between atoms: _63  and  _64
REMARK   27  A    between atoms: _64  and  _65
REMARK   28  A    between atoms: _70  and  _72
REMARK   29  A    between atoms: _72  and  _73
REMARK   30  A    between atoms: _72  and  _75
REMARK   31  A    between atoms: _75  and  _76
REMARK   32  A    between atoms: _78  and  _80
REMARK   33  A    between atoms: _80  and  _81
REMARK   34  A    between atoms: _84  and  _86
REMARK   35  A    between atoms: _86  and  _87
REMARK   36  A    between atoms: _86  and  _89
REMARK   37  A    between atoms: _89  and  _90
REMARK   38  A    between atoms: _92  and  _94
REMARK   39  A    between atoms: _94  and  _95
REMARK   40  A    between atoms: _98  and  _100
REMARK   41  A    between atoms: _100  and  _101
REMARK   42  A    between atoms: _100  and  _103
REMARK   43  A    between atoms: _103  and  _104
REMARK   44  A    between atoms: _107  and  _109
REMARK   45  A    between atoms: _109  and  _110
REMARK   46  A    between atoms: _109  and  _112
REMARK   47  A    between atoms: _112  and  _113
REMARK   48  A    between atoms: _115  and  _117
REMARK   49  A    between atoms: _117  and  _118
REMARK   50  A    between atoms: _117  and  _120
REMARK   51  A    between atoms: _120  and  _121
REMARK   52  A    between atoms: _123  and  _125
REMARK   53  A    between atoms: _125  and  _126
REMARK   54  A    between atoms: _125  and  _128
REMARK   55  A    between atoms: _128  and  _129
REMARK   56  A    between atoms: _129  and  _130
REMARK   57  A    between atoms: _130  and  _131
REMARK   58  A    between atoms: _131  and  _132
REMARK   59  A    between atoms: _136  and  _138
REMARK   60  A    between atoms: _138  and  _139
REMARK   61  A    between atoms: _138  and  _141
REMARK   62  A    between atoms: _144  and  _146
REMARK   63  A    between atoms: _146  and  _147
REMARK   64  A    between atoms: _146  and  _149
REMARK   65  A    between atoms: _149  and  _150
REMARK   66  A    between atoms: _150  and  _151
REMARK   67  A    between atoms: _151  and  _152
REMARK   68  A    between atoms: _161  and  _163
REMARK   69  A    between atoms: _163  and  _164
REMARK   70  A    between atoms: _163  and  _166
REMARK   71  A    between atoms: _166  and  _167
REMARK   72  A    between atoms: _167  and  _168
REMARK   73  A    between atoms: _171  and  _173
REMARK   74  A    between atoms: _173  and  _174
REMARK   75  A    between atoms: _173  and  _176
REMARK   76  A    between atoms: _176  and  _177
REMARK   77  A    between atoms: _177  and  _178
REMARK   78  A    between atoms: _183  and  _185
REMARK   79  A    between atoms: _185  and  _186
REMARK   80  A    between atoms: _185  and  _188
REMARK   81  A    between atoms: _188  and  _189
REMARK   82  A    between atoms: _189  and  _190
REMARK   83  A    between atoms: _190  and  _191
REMARK   84  A    between atoms: _191  and  _192
REMARK   85  A    between atoms: _196  and  _198
REMARK   86  A    between atoms: _198  and  _199
REMARK   87  A    between atoms: _198  and  _201
REMARK   88  A    between atoms: _201  and  _202
REMARK   89  A    between atoms: _205  and  _207
REMARK   90  A    between atoms: _207  and  _208
REMARK   91  A    between atoms: _207  and  _210
REMARK   92  A    between atoms: _210  and  _211
REMARK   93  A    between atoms: _211  and  _212
REMARK   94  A    between atoms: _212  and  _213
REMARK   95  A    between atoms: _222  and  _224
REMARK   96  A    between atoms: _224  and  _225
REMARK   97  A    between atoms: _224  and  _227
REMARK   98  A    between atoms: _227  and  _228
REMARK   99  A    between atoms: _228  and  _229
REMARK  100  A    between atoms: _232  and  _234
REMARK  101  A    between atoms: _234  and  _235
REMARK  102  A    between atoms: _234  and  _237
REMARK  103  A    between atoms: _237  and  _238
REMARK  104  A    between atoms: _241  and  _243
REMARK  105  A    between atoms: _243  and  _244
REMARK  106  A    between atoms: _243  and  _246
REMARK  107  A    between atoms: _246  and  _247
REMARK  108  A    between atoms: _252  and  _253
REMARK  109  A    between atoms: _255  and  _257
REMARK  110  A    between atoms: _257  and  _258
REMARK  111  A    between atoms: _257  and  _260
REMARK  112  A    between atoms: _260  and  _261
REMARK  113  A    between atoms: _261  and  _262
REMARK  114  A    between atoms: _262  and  _263
REMARK  115  A    between atoms: _272  and  _274
REMARK  116  A    between atoms: _274  and  _275
REMARK  117  A    between atoms: _274  and  _277
REMARK  118  A    between atoms: _277  and  _278
REMARK  119  A    between atoms: _278  and  _279
REMARK  120  A    between atoms: _279  and  _280
REMARK  121  A    between atoms: _280  and  _281
REMARK  122  A    between atoms: _285  and  _287
REMARK  123  A    between atoms: _287  and  _288
REMARK  124  A    between atoms: _287  and  _290
REMARK  125  A    between atoms: _290  and  _291
REMARK  126  A    between atoms: _296  and  _298
REMARK  127  A    between atoms: _298  and  _299
REMARK  128  A    between atoms: _298  and  _301
REMARK  129  A    between atoms: _301  and  _302
REMARK  130  A    between atoms: _302  and  _303
REMARK                            x       y       z     vdW  Elec       q    Type
REMARK                         _______ _______ _______ _____ _____    ______ ____
ROOT
ATOM      1  O   HOH     1      24.285  -0.689   4.310  0.00  0.00    +0.000 OA
ENDROOT
TORSDOF 0
REMARK  Name = ../refined-set-2016/1n4k/1n4k_pocket.pdb
REMARK  130 active torsions:
REMARK  status: ('A' for Active; 'I' for Inactive)
REMARK    1  A    between atoms: _1  and  _3
REMARK    2  A    between atoms: _3  and  _4
REMARK    3  A    between atoms: _3  and  _6
REMARK    4  A    between atoms: _6  and  _7
REMARK    5  A    between atoms: _7  and  _8
REMARK    6  A    between atoms: _8  and  _9
REMARK    7  A    between atoms: _18  and  _20
REMARK    8  A    between atoms: _20  and  _21
REMARK    9  A    between atoms: _20  and  _23
REMARK   10  A    between atoms: _23  and  _24
REMARK   11  A    between atoms: _27  and  _29
REMARK   12  A    between atoms: _29  and  _30
REMARK   13  A    between atoms: _29  and  _32
REMARK   14  A    between atoms: _32  and  _33
REMARK   15  A    between atoms: _36  and  _38
REMARK   16  A    between atoms: _38  and  _39
REMARK   17  A    between atoms: _41  and  _43
REMARK   18  A    between atoms: _43  and  _44
REMARK   19  A    between atoms: _43  and  _46
REMARK   20  A    between atoms: _46  and  _47
REMARK   21  A    between atoms: _47  and  _48
REMARK   22  A    between atoms: _48  and  _49
REMARK   23  A    between atoms: _58  and  _60
REMARK   24  A    between atoms: _60  and  _61
REMARK   25  A    between atoms: _60  and  _63
REMARK   26  A    between atoms: _63  and  _64
REMARK   27  A    between atoms: _64  and  _65
REMARK   28  A    between atoms: _70  and  _72
REMARK   29  A    between atoms: _72  and  _73
REMARK   30  A    between atoms: _72  and  _75
REMARK   31  A    between atoms: _75  and  _76
REMARK   32  A    between atoms: _78  and  _80
REMARK   33  A    between atoms: _80  and  _81
REMARK   34  A    between atoms: _84  and  _86
REMARK   35  A    between atoms: _86  and  _87
REMARK   36  A    between atoms: _86  and  _89
REMARK   37  A    between atoms: _89  and  _90
REMARK   38  A    between atoms: _92  and  _94
REMARK   39  A    between atoms: _94  and  _95
REMARK   40  A    between atoms: _98  and  _100
REMARK   41  A    between atoms: _100  and  _101
REMARK   42  A    between atoms: _100  and  _103
REMARK   43  A    between atoms: _103  and  _104
REMARK   44  A    between atoms: _107  and  _109
REMARK   45  A    between atoms: _109  and  _110
REMARK   46  A    between atoms: _109  and  _112
REMARK   47  A    between atoms: _112  and  _113
REMARK   48  A    between atoms: _115  and  _117
REMARK   49  A    between atoms: _117  and  _118
REMARK   50  A    between atoms: _117  and  _120
REMARK   51  A    between atoms: _120  and  _121
REMARK   52  A    between atoms: _123  and  _125
REMARK   53  A    between atoms: _125  and  _126
REMARK   54  A    between atoms: _125  and  _128
REMARK   55  A    between atoms: _128  and  _129
REMARK   56  A    between atoms: _129  and  _130
REMARK   57  A    between atoms: _130  and  _131
REMARK   58  A    between atoms: _131  and  _132
REMARK   59  A    between atoms: _136  and  _138
REMARK   60  A    between atoms: _138  and  _139
REMARK   61  A    between atoms: _138  and  _141
REMARK   62  A    between atoms: _144  and  _146
REMARK   63  A    between atoms: _146  and  _147
REMARK   64  A    between atoms: _146  and  _149
REMARK   65  A    between atoms: _149  and  _150
REMARK   66  A    between atoms: _150  and  _151
REMARK   67  A    between atoms: _151  and  _152
REMARK   68  A    between atoms: _161  and  _163
REMARK   69  A    between atoms: _163  and  _164
REMARK   70  A    between atoms: _163  and  _166
REMARK   71  A    between atoms: _166  and  _167
REMARK   72  A    between atoms: _167  and  _168
REMARK   73  A    between atoms: _171  and  _173
REMARK   74  A    between atoms: _173  and  _174
REMARK   75  A    between atoms: _173  and  _176
REMARK   76  A    between atoms: _176  and  _177
REMARK   77  A    between atoms: _177  and  _178
REMARK   78  A    between atoms: _183  and  _185
REMARK   79  A    between atoms: _185  and  _186
REMARK   80  A    between atoms: _185  and  _188
REMARK   81  A    between atoms: _188  and  _189
REMARK   82  A    between atoms: _189  and  _190
REMARK   83  A    between atoms: _190  and  _191
REMARK   84  A    between atoms: _191  and  _192
REMARK   85  A    between atoms: _196  and  _198
REMARK   86  A    between atoms: _198  and  _199
REMARK   87  A    between atoms: _198  and  _201
REMARK   88  A    between atoms: _201  and  _202
REMARK   89  A    between atoms: _205  and  _207
REMARK   90  A    between atoms: _207  and  _208
REMARK   91  A    between atoms: _207  and  _210
REMARK   92  A    between atoms: _210  and  _211
REMARK   93  A    between atoms: _211  and  _212
REMARK   94  A    between atoms: _212  and  _213
REMARK   95  A    between atoms: _222  and  _224
REMARK   96  A    between atoms: _224  and  _225
REMARK   97  A    between atoms: _224  and  _227
REMARK   98  A    between atoms: _227  and  _228
REMARK   99  A    between atoms: _228  and  _229
REMARK  100  A    between atoms: _232  and  _234
REMARK  101  A    between atoms: _234  and  _235
REMARK  102  A    between atoms: _234  and  _237
REMARK  103  A    between atoms: _237  and  _238
REMARK  104  A    between atoms: _241  and  _243
REMARK  105  A    between atoms: _243  and  _244
REMARK  106  A    between atoms: _243  and  _246
REMARK  107  A    between atoms: _246  and  _247
REMARK  108  A    between atoms: _252  and  _253
REMARK  109  A    between atoms: _255  and  _257
REMARK  110  A    between atoms: _257  and  _258
REMARK  111  A    between atoms: _257  and  _260
REMARK  112  A    between atoms: _260  and  _261
REMARK  113  A    between atoms: _261  and  _262
REMARK  114  A    between atoms: _262  and  _263
REMARK  115  A    between atoms: _272  and  _274
REMARK  116  A    between atoms: _274  and  _275
REMARK  117  A    between atoms: _274  and  _277
REMARK  118  A    between atoms: _277  and  _278
REMARK  119  A    between atoms: _278  and  _279
REMARK  120  A    between atoms: _279  and  _280
REMARK  121  A    between atoms: _280  and  _281
REMARK  122  A    between atoms: _285  and  _287
REMARK  123  A    between atoms: _287  and  _288
REMARK  124  A    between atoms: _287  and  _290
REMARK  125  A    between atoms: _290  and  _291
REMARK  126  A    between atoms: _296  and  _298
REMARK  127  A    between atoms: _298  and  _299
REMARK  128  A    between atoms: _298  and  _301
REMARK  129  A    between atoms: _301  and  _302
REMARK  130  A    between atoms: _302  and  _303
REMARK                            x       y       z     vdW  Elec       q    Type
REMARK                         _______ _______ _______ _____ _____    ______ ____
ROOT
ATOM      1  O   HOH     1      22.796 -10.191  19.933  0.00  0.00    +0.000 OA
ENDROOT
TORSDOF 0
REMARK  Name = ../refined-set-2016/1n4k/1n4k_pocket.pdb
REMARK  130 active torsions:
REMARK  status: ('A' for Active; 'I' for Inactive)
REMARK    1  A    between atoms: _1  and  _3
REMARK    2  A    between atoms: _3  and  _4
REMARK    3  A    between atoms: _3  and  _6
REMARK    4  A    between atoms: _6  and  _7
REMARK    5  A    between atoms: _7  and  _8
REMARK    6  A    between atoms: _8  and  _9
REMARK    7  A    between atoms: _18  and  _20
REMARK    8  A    between atoms: _20  and  _21
REMARK    9  A    between atoms: _20  and  _23
REMARK   10  A    between atoms: _23  and  _24
REMARK   11  A    between atoms: _27  and  _29
REMARK   12  A    between atoms: _29  and  _30
REMARK   13  A    between atoms: _29  and  _32
REMARK   14  A    between atoms: _32  and  _33
REMARK   15  A    between atoms: _36  and  _38
REMARK   16  A    between atoms: _38  and  _39
REMARK   17  A    between atoms: _41  and  _43
REMARK   18  A    between atoms: _43  and  _44
REMARK   19  A    between atoms: _43  and  _46
REMARK   20  A    between atoms: _46  and  _47
REMARK   21  A    between atoms: _47  and  _48
REMARK   22  A    between atoms: _48  and  _49
REMARK   23  A    between atoms: _58  and  _60
REMARK   24  A    between atoms: _60  and  _61
REMARK   25  A    between atoms: _60  and  _63
REMARK   26  A    between atoms: _63  and  _64
REMARK   27  A    between atoms: _64  and  _65
REMARK   28  A    between atoms: _70  and  _72
REMARK   29  A    between atoms: _72  and  _73
REMARK   30  A    between atoms: _72  and  _75
REMARK   31  A    between atoms: _75  and  _76
REMARK   32  A    between atoms: _78  and  _80
REMARK   33  A    between atoms: _80  and  _81
REMARK   34  A    between atoms: _84  and  _86
REMARK   35  A    between atoms: _86  and  _87
REMARK   36  A    between atoms: _86  and  _89
REMARK   37  A    between atoms: _89  and  _90
REMARK   38  A    between atoms: _92  and  _94
REMARK   39  A    between atoms: _94  and  _95
REMARK   40  A    between atoms: _98  and  _100
REMARK   41  A    between atoms: _100  and  _101
REMARK   42  A    between atoms: _100  and  _103
REMARK   43  A    between atoms: _103  and  _104
REMARK   44  A    between atoms: _107  and  _109
REMARK   45  A    between atoms: _109  and  _110
REMARK   46  A    between atoms: _109  and  _112
REMARK   47  A    between atoms: _112  and  _113
REMARK   48  A    between atoms: _115  and  _117
REMARK   49  A    between atoms: _117  and  _118
REMARK   50  A    between atoms: _117  and  _120
REMARK   51  A    between atoms: _120  and  _121
REMARK   52  A    between atoms: _123  and  _125
REMARK   53  A    between atoms: _125  and  _126
REMARK   54  A    between atoms: _125  and  _128
REMARK   55  A    between atoms: _128  and  _129
REMARK   56  A    between atoms: _129  and  _130
REMARK   57  A    between atoms: _130  and  _131
REMARK   58  A    between atoms: _131  and  _132
REMARK   59  A    between atoms: _136  and  _138
REMARK   60  A    between atoms: _138  and  _139
REMARK   61  A    between atoms: _138  and  _141
REMARK   62  A    between atoms: _144  and  _146
REMARK   63  A    between atoms: _146  and  _147
REMARK   64  A    between atoms: _146  and  _149
REMARK   65  A    between atoms: _149  and  _150
REMARK   66  A    between atoms: _150  and  _151
REMARK   67  A    between atoms: _151  and  _152
REMARK   68  A    between atoms: _161  and  _163
REMARK   69  A    between atoms: _163  and  _164
REMARK   70  A    between atoms: _163  and  _166
REMARK   71  A    between atoms: _166  and  _167
REMARK   72  A    between atoms: _167  and  _168
REMARK   73  A    between atoms: _171  and  _173
REMARK   74  A    between atoms: _173  and  _174
REMARK   75  A    between atoms: _173  and  _176
REMARK   76  A    between atoms: _176  and  _177
REMARK   77  A    between atoms: _177  and  _178
REMARK   78  A    between atoms: _183  and  _185
REMARK   79  A    between atoms: _185  and  _186
REMARK   80  A    between atoms: _185  and  _188
REMARK   81  A    between atoms: _188  and  _189
REMARK   82  A    between atoms: _189  and  _190
REMARK   83  A    between atoms: _190  and  _191
REMARK   84  A    between atoms: _191  and  _192
REMARK   85  A    between atoms: _196  and  _198
REMARK   86  A    between atoms: _198  and  _199
REMARK   87  A    between atoms: _198  and  _201
REMARK   88  A    between atoms: _201  and  _202
REMARK   89  A    between atoms: _205  and  _207
REMARK   90  A    between atoms: _207  and  _208
REMARK   91  A    between atoms: _207  and  _210
REMARK   92  A    between atoms: _210  and  _211
REMARK   93  A    between atoms: _211  and  _212
REMARK   94  A    between atoms: _212  and  _213
REMARK   95  A    between atoms: _222  and  _224
REMARK   96  A    between atoms: _224  and  _225
REMARK   97  A    between atoms: _224  and  _227
REMARK   98  A    between atoms: _227  and  _228
REMARK   99  A    between atoms: _228  and  _229
REMARK  100  A    between atoms: _232  and  _234
REMARK  101  A    between atoms: _234  and  _235
REMARK  102  A    between atoms: _234  and  _237
REMARK  103  A    between atoms: _237  and  _238
REMARK  104  A    between atoms: _241  and  _243
REMARK  105  A    between atoms: _243  and  _244
REMARK  106  A    between atoms: _243  and  _246
REMARK  107  A    between atoms: _246  and  _247
REMARK  108  A    between atoms: _252  and  _253
REMARK  109  A    between atoms: _255  and  _257
REMARK  110  A    between atoms: _257  and  _258
REMARK  111  A    between atoms: _257  and  _260
REMARK  112  A    between atoms: _260  and  _261
REMARK  113  A    between atoms: _261  and  _262
REMARK  114  A    between atoms: _262  and  _263
REMARK  115  A    between atoms: _272  and  _274
REMARK  116  A    between atoms: _274  and  _275
REMARK  117  A    between atoms: _274  and  _277
REMARK  118  A    between atoms: _277  and  _278
REMARK  119  A    between atoms: _278  and  _279
REMARK  120  A    between atoms: _279  and  _280
REMARK  121  A    between atoms: _280  and  _281
REMARK  122  A    between atoms: _285  and  _287
REMARK  123  A    between atoms: _287  and  _288
REMARK  124  A    between atoms: _287  and  _290
REMARK  125  A    between atoms: _290  and  _291
REMARK  126  A    between atoms: _296  and  _298
REMARK  127  A    between atoms: _298  and  _299
REMARK  128  A    between atoms: _298  and  _301
REMARK  129  A    between atoms: _301  and  _302
REMARK  130  A    between atoms: _302  and  _303
REMARK                            x       y       z     vdW  Elec       q    Type
REMARK                         _______ _______ _______ _____ _____    ______ ____
ROOT
ATOM      1  O   HOH     1      16.461  -2.096  17.783  0.00  0.00    +0.000 OA
ENDROOT
TORSDOF 0
REMARK  Name = ../refined-set-2016/1n4k/1n4k_pocket.pdb
REMARK  130 active torsions:
REMARK  status: ('A' for Active; 'I' for Inactive)
REMARK    1  A    between atoms: _1  and  _3
REMARK    2  A    between atoms: _3  and  _4
REMARK    3  A    between atoms: _3  and  _6
REMARK    4  A    between atoms: _6  and  _7
REMARK    5  A    between atoms: _7  and  _8
REMARK    6  A    between atoms: _8  and  _9
REMARK    7  A    between atoms: _18  and  _20
REMARK    8  A    between atoms: _20  and  _21
REMARK    9  A    between atoms: _20  and  _23
REMARK   10  A    between atoms: _23  and  _24
REMARK   11  A    between atoms: _27  and  _29
REMARK   12  A    between atoms: _29  and  _30
REMARK   13  A    between atoms: _29  and  _32
REMARK   14  A    between atoms: _32  and  _33
REMARK   15  A    between atoms: _36  and  _38
REMARK   16  A    between atoms: _38  and  _39
REMARK   17  A    between atoms: _41  and  _43
REMARK   18  A    between atoms: _43  and  _44
REMARK   19  A    between atoms: _43  and  _46
REMARK   20  A    between atoms: _46  and  _47
REMARK   21  A    between atoms: _47  and  _48
REMARK   22  A    between atoms: _48  and  _49
REMARK   23  A    between atoms: _58  and  _60
REMARK   24  A    between atoms: _60  and  _61
REMARK   25  A    between atoms: _60  and  _63
REMARK   26  A    between atoms: _63  and  _64
REMARK   27  A    between atoms: _64  and  _65
REMARK   28  A    between atoms: _70  and  _72
REMARK   29  A    between atoms: _72  and  _73
REMARK   30  A    between atoms: _72  and  _75
REMARK   31  A    between atoms: _75  and  _76
REMARK   32  A    between atoms: _78  and  _80
REMARK   33  A    between atoms: _80  and  _81
REMARK   34  A    between atoms: _84  and  _86
REMARK   35  A    between atoms: _86  and  _87
REMARK   36  A    between atoms: _86  and  _89
REMARK   37  A    between atoms: _89  and  _90
REMARK   38  A    between atoms: _92  and  _94
REMARK   39  A    between atoms: _94  and  _95
REMARK   40  A    between atoms: _98  and  _100
REMARK   41  A    between atoms: _100  and  _101
REMARK   42  A    between atoms: _100  and  _103
REMARK   43  A    between atoms: _103  and  _104
REMARK   44  A    between atoms: _107  and  _109
REMARK   45  A    between atoms: _109  and  _110
REMARK   46  A    between atoms: _109  and  _112
REMARK   47  A    between atoms: _112  and  _113
REMARK   48  A    between atoms: _115  and  _117
REMARK   49  A    between atoms: _117  and  _118
REMARK   50  A    between atoms: _117  and  _120
REMARK   51  A    between atoms: _120  and  _121
REMARK   52  A    between atoms: _123  and  _125
REMARK   53  A    between atoms: _125  and  _126
REMARK   54  A    between atoms: _125  and  _128
REMARK   55  A    between atoms: _128  and  _129
REMARK   56  A    between atoms: _129  and  _130
REMARK   57  A    between atoms: _130  and  _131
REMARK   58  A    between atoms: _131  and  _132
REMARK   59  A    between atoms: _136  and  _138
REMARK   60  A    between atoms: _138  and  _139
REMARK   61  A    between atoms: _138  and  _141
REMARK   62  A    between atoms: _144  and  _146
REMARK   63  A    between atoms: _146  and  _147
REMARK   64  A    between atoms: _146  and  _149
REMARK   65  A    between atoms: _149  and  _150
REMARK   66  A    between atoms: _150  and  _151
REMARK   67  A    between atoms: _151  and  _152
REMARK   68  A    between atoms: _161  and  _163
REMARK   69  A    between atoms: _163  and  _164
REMARK   70  A    between atoms: _163  and  _166
REMARK   71  A    between atoms: _166  and  _167
REMARK   72  A    between atoms: _167  and  _168
REMARK   73  A    between atoms: _171  and  _173
REMARK   74  A    between atoms: _173  and  _174
REMARK   75  A    between atoms: _173  and  _176
REMARK   76  A    between atoms: _176  and  _177
REMARK   77  A    between atoms: _177  and  _178
REMARK   78  A    between atoms: _183  and  _185
REMARK   79  A    between atoms: _185  and  _186
REMARK   80  A    between atoms: _185  and  _188
REMARK   81  A    between atoms: _188  and  _189
REMARK   82  A    between atoms: _189  and  _190
REMARK   83  A    between atoms: _190  and  _191
REMARK   84  A    between atoms: _191  and  _192
REMARK   85  A    between atoms: _196  and  _198
REMARK   86  A    between atoms: _198  and  _199
REMARK   87  A    between atoms: _198  and  _201
REMARK   88  A    between atoms: _201  and  _202
REMARK   89  A    between atoms: _205  and  _207
REMARK   90  A    between atoms: _207  and  _208
REMARK   91  A    between atoms: _207  and  _210
REMARK   92  A    between atoms: _210  and  _211
REMARK   93  A    between atoms: _211  and  _212
REMARK   94  A    between atoms: _212  and  _213
REMARK   95  A    between atoms: _222  and  _224
REMARK   96  A    between atoms: _224  and  _225
REMARK   97  A    between atoms: _224  and  _227
REMARK   98  A    between atoms: _227  and  _228
REMARK   99  A    between atoms: _228  and  _229
REMARK  100  A    between atoms: _232  and  _234
REMARK  101  A    between atoms: _234  and  _235
REMARK  102  A    between atoms: _234  and  _237
REMARK  103  A    between atoms: _237  and  _238
REMARK  104  A    between atoms: _241  and  _243
REMARK  105  A    between atoms: _243  and  _244
REMARK  106  A    between atoms: _243  and  _246
REMARK  107  A    between atoms: _246  and  _247
REMARK  108  A    between atoms: _252  and  _253
REMARK  109  A    between atoms: _255  and  _257
REMARK  110  A    between atoms: _257  and  _258
REMARK  111  A    between atoms: _257  and  _260
REMARK  112  A    between atoms: _260  and  _261
REMARK  113  A    between atoms: _261  and  _262
REMARK  114  A    between atoms: _262  and  _263
REMARK  115  A    between atoms: _272  and  _274
REMARK  116  A    between atoms: _274  and  _275
REMARK  117  A    between atoms: _274  and  _277
REMARK  118  A    between atoms: _277  and  _278
REMARK  119  A    between atoms: _278  and  _279
REMARK  120  A    between atoms: _279  and  _280
REMARK  121  A    between atoms: _280  and  _281
REMARK  122  A    between atoms: _285  and  _287
REMARK  123  A    between atoms: _287  and  _288
REMARK  124  A    between atoms: _287  and  _290
REMARK  125  A    between atoms: _290  and  _291
REMARK  126  A    between atoms: _296  and  _298
REMARK  127  A    between atoms: _298  and  _299
REMARK  128  A    between atoms: _298  and  _301
REMARK  129  A    between atoms: _301  and  _302
REMARK  130  A    between atoms: _302  and  _303
REMARK                            x       y       z     vdW  Elec       q    Type
REMARK                         _______ _______ _______ _____ _____    ______ ____
ROOT
ATOM      1  O   HOH     1      16.920   0.907   2.295  0.00  0.00    +0.000 OA
ENDROOT
TORSDOF 0
REMARK  Name = ../refined-set-2016/1n4k/1n4k_pocket.pdb
REMARK  130 active torsions:
REMARK  status: ('A' for Active; 'I' for Inactive)
REMARK    1  A    between atoms: _1  and  _3
REMARK    2  A    between atoms: _3  and  _4
REMARK    3  A    between atoms: _3  and  _6
REMARK    4  A    between atoms: _6  and  _7
REMARK    5  A    between atoms: _7  and  _8
REMARK    6  A    between atoms: _8  and  _9
REMARK    7  A    between atoms: _18  and  _20
REMARK    8  A    between atoms: _20  and  _21
REMARK    9  A    between atoms: _20  and  _23
REMARK   10  A    between atoms: _23  and  _24
REMARK   11  A    between atoms: _27  and  _29
REMARK   12  A    between atoms: _29  and  _30
REMARK   13  A    between atoms: _29  and  _32
REMARK   14  A    between atoms: _32  and  _33
REMARK   15  A    between atoms: _36  and  _38
REMARK   16  A    between atoms: _38  and  _39
REMARK   17  A    between atoms: _41  and  _43
REMARK   18  A    between atoms: _43  and  _44
REMARK   19  A    between atoms: _43  and  _46
REMARK   20  A    between atoms: _46  and  _47
REMARK   21  A    between atoms: _47  and  _48
REMARK   22  A    between atoms: _48  and  _49
REMARK   23  A    between atoms: _58  and  _60
REMARK   24  A    between atoms: _60  and  _61
REMARK   25  A    between atoms: _60  and  _63
REMARK   26  A    between atoms: _63  and  _64
REMARK   27  A    between atoms: _64  and  _65
REMARK   28  A    between atoms: _70  and  _72
REMARK   29  A    between atoms: _72  and  _73
REMARK   30  A    between atoms: _72  and  _75
REMARK   31  A    between atoms: _75  and  _76
REMARK   32  A    between atoms: _78  and  _80
REMARK   33  A    between atoms: _80  and  _81
REMARK   34  A    between atoms: _84  and  _86
REMARK   35  A    between atoms: _86  and  _87
REMARK   36  A    between atoms: _86  and  _89
REMARK   37  A    between atoms: _89  and  _90
REMARK   38  A    between atoms: _92  and  _94
REMARK   39  A    between atoms: _94  and  _95
REMARK   40  A    between atoms: _98  and  _100
REMARK   41  A    between atoms: _100  and  _101
REMARK   42  A    between atoms: _100  and  _103
REMARK   43  A    between atoms: _103  and  _104
REMARK   44  A    between atoms: _107  and  _109
REMARK   45  A    between atoms: _109  and  _110
REMARK   46  A    between atoms: _109  and  _112
REMARK   47  A    between atoms: _112  and  _113
REMARK   48  A    between atoms: _115  and  _117
REMARK   49  A    between atoms: _117  and  _118
REMARK   50  A    between atoms: _117  and  _120
REMARK   51  A    between atoms: _120  and  _121
REMARK   52  A    between atoms: _123  and  _125
REMARK   53  A    between atoms: _125  and  _126
REMARK   54  A    between atoms: _125  and  _128
REMARK   55  A    between atoms: _128  and  _129
REMARK   56  A    between atoms: _129  and  _130
REMARK   57  A    between atoms: _130  and  _131
REMARK   58  A    between atoms: _131  and  _132
REMARK   59  A    between atoms: _136  and  _138
REMARK   60  A    between atoms: _138  and  _139
REMARK   61  A    between atoms: _138  and  _141
REMARK   62  A    between atoms: _144  and  _146
REMARK   63  A    between atoms: _146  and  _147
REMARK   64  A    between atoms: _146  and  _149
REMARK   65  A    between atoms: _149  and  _150
REMARK   66  A    between atoms: _150  and  _151
REMARK   67  A    between atoms: _151  and  _152
REMARK   68  A    between atoms: _161  and  _163
REMARK   69  A    between atoms: _163  and  _164
REMARK   70  A    between atoms: _163  and  _166
REMARK   71  A    between atoms: _166  and  _167
REMARK   72  A    between atoms: _167  and  _168
REMARK   73  A    between atoms: _171  and  _173
REMARK   74  A    between atoms: _173  and  _174
REMARK   75  A    between atoms: _173  and  _176
REMARK   76  A    between atoms: _176  and  _177
REMARK   77  A    between atoms: _177  and  _178
REMARK   78  A    between atoms: _183  and  _185
REMARK   79  A    between atoms: _185  and  _186
REMARK   80  A    between atoms: _185  and  _188
REMARK   81  A    between atoms: _188  and  _189
REMARK   82  A    between atoms: _189  and  _190
REMARK   83  A    between atoms: _190  and  _191
REMARK   84  A    between atoms: _191  and  _192
REMARK   85  A    between atoms: _196  and  _198
REMARK   86  A    between atoms: _198  and  _199
REMARK   87  A    between atoms: _198  and  _201
REMARK   88  A    between atoms: _201  and  _202
REMARK   89  A    between atoms: _205  and  _207
REMARK   90  A    between atoms: _207  and  _208
REMARK   91  A    between atoms: _207  and  _210
REMARK   92  A    between atoms: _210  and  _211
REMARK   93  A    between atoms: _211  and  _212
REMARK   94  A    between atoms: _212  and  _213
REMARK   95  A    between atoms: _222  and  _224
REMARK   96  A    between atoms: _224  and  _225
REMARK   97  A    between atoms: _224  and  _227
REMARK   98  A    between atoms: _227  and  _228
REMARK   99  A    between atoms: _228  and  _229
REMARK  100  A    between atoms: _232  and  _234
REMARK  101  A    between atoms: _234  and  _235
REMARK  102  A    between atoms: _234  and  _237
REMARK  103  A    between atoms: _237  and  _238
REMARK  104  A    between atoms: _241  and  _243
REMARK  105  A    between atoms: _243  and  _244
REMARK  106  A    between atoms: _243  and  _246
REMARK  107  A    between atoms: _246  and  _247
REMARK  108  A    between atoms: _252  and  _253
REMARK  109  A    between atoms: _255  and  _257
REMARK  110  A    between atoms: _257  and  _258
REMARK  111  A    between atoms: _257  and  _260
REMARK  112  A    between atoms: _260  and  _261
REMARK  113  A    between atoms: _261  and  _262
REMARK  114  A    between atoms: _262  and  _263
REMARK  115  A    between atoms: _272  and  _274
REMARK  116  A    between atoms: _274  and  _275
REMARK  117  A    between atoms: _274  and  _277
REMARK  118  A    between atoms: _277  and  _278
REMARK  119  A    between atoms: _278  and  _279
REMARK  120  A    between atoms: _279  and  _280
REMARK  121  A    between atoms: _280  and  _281
REMARK  122  A    between atoms: _285  and  _287
REMARK  123  A    between atoms: _287  and  _288
REMARK  124  A    between atoms: _287  and  _290
REMARK  125  A    between atoms: _290  and  _291
REMARK  126  A    between atoms: _296  and  _298
REMARK  127  A    between atoms: _298  and  _299
REMARK  128  A    between atoms: _298  and  _301
REMARK  129  A    between atoms: _301  and  _302
REMARK  130  A    between atoms: _302  and  _303
REMARK                            x       y       z     vdW  Elec       q    Type
REMARK                         _______ _______ _______ _____ _____    ______ ____
ROOT
ATOM      1  O   HOH     1      20.611  -7.846  10.950  0.00  0.00    +0.000 OA
ENDROOT
TORSDOF 0
