REMARK  Name = ../refined-set-2016/3s54/3s54_pocket.pdb
REMARK  229 active torsions:
REMARK  status: ('A' for Active; 'I' for Inactive)
REMARK    1  A    between atoms: _1  and  _3
REMARK    2  A    between atoms: _3  and  _4
REMARK    3  A    between atoms: _3  and  _6
REMARK    4  A    between atoms: _6  and  _7
REMARK    5  A    between atoms: _7  and  _8
REMARK    6  A    between atoms: _8  and  _9
REMARK    7  A    between atoms: _18  and  _20
REMARK    8  A    between atoms: _20  and  _21
REMARK    9  A    between atoms: _20  and  _23
REMARK   10  A    between atoms: _23  and  _24
REMARK   11  A    between atoms: _27  and  _29
REMARK   12  A    between atoms: _29  and  _30
REMARK   13  A    between atoms: _29  and  _32
REMARK   14  A    between atoms: _32  and  _33
REMARK   15  A    between atoms: _36  and  _38
REMARK   16  A    between atoms: _38  and  _39
REMARK   17  A    between atoms: _38  and  _41
REMARK   18  A    between atoms: _41  and  _42
REMARK   19  A    between atoms: _45  and  _47
REMARK   20  A    between atoms: _47  and  _48
REMARK   21  A    between atoms: _47  and  _50
REMARK   22  A    between atoms: _50  and  _51
REMARK   23  A    between atoms: _54  and  _56
REMARK   24  A    between atoms: _56  and  _57
REMARK   25  A    between atoms: _59  and  _61
REMARK   26  A    between atoms: _61  and  _62
REMARK   27  A    between atoms: _65  and  _67
REMARK   28  A    between atoms: _67  and  _68
REMARK   29  A    between atoms: _67  and  _70
REMARK   30  A    between atoms: _70  and  _71
REMARK   31  A    between atoms: _74  and  _76
REMARK   32  A    between atoms: _76  and  _77
REMARK   33  A    between atoms: _76  and  _79
REMARK   34  A    between atoms: _79  and  _80
REMARK   35  A    between atoms: _80  and  _82
REMARK   36  A    between atoms: _83  and  _85
REMARK   37  A    between atoms: _85  and  _86
REMARK   38  A    between atoms: _85  and  _88
REMARK   39  A    between atoms: _88  and  _89
REMARK   40  A    between atoms: _92  and  _94
REMARK   41  A    between atoms: _94  and  _95
REMARK   42  A    between atoms: _94  and  _97
REMARK   43  A    between atoms: _97  and  _98
REMARK   44  A    between atoms: _101  and  _103
REMARK   45  A    between atoms: _103  and  _104
REMARK   46  A    between atoms: _103  and  _106
REMARK   47  A    between atoms: _106  and  _107
REMARK   48  A    between atoms: _107  and  _108
REMARK   49  A    between atoms: _108  and  _109
REMARK   50  A    between atoms: _109  and  _110
REMARK   51  A    between atoms: _114  and  _116
REMARK   52  A    between atoms: _116  and  _117
REMARK   53  A    between atoms: _116  and  _119
REMARK   54  A    between atoms: _119  and  _120
REMARK   55  A    between atoms: _120  and  _121
REMARK   56  A    between atoms: _123  and  _125
REMARK   57  A    between atoms: _125  and  _126
REMARK   58  A    between atoms: _125  and  _128
REMARK   59  A    between atoms: _131  and  _133
REMARK   60  A    between atoms: _133  and  _134
REMARK   61  A    between atoms: _136  and  _138
REMARK   62  A    between atoms: _138  and  _139
REMARK   63  A    between atoms: _141  and  _143
REMARK   64  A    between atoms: _143  and  _144
REMARK   65  A    between atoms: _143  and  _146
REMARK   66  A    between atoms: _146  and  _147
REMARK   67  A    between atoms: _150  and  _152
REMARK   68  A    between atoms: _152  and  _153
REMARK   69  A    between atoms: _155  and  _157
REMARK   70  A    between atoms: _157  and  _158
REMARK   71  A    between atoms: _160  and  _162
REMARK   72  A    between atoms: _162  and  _163
REMARK   73  A    between atoms: _162  and  _165
REMARK   74  A    between atoms: _165  and  _166
REMARK   75  A    between atoms: _172  and  _174
REMARK   76  A    between atoms: _174  and  _175
REMARK   77  A    between atoms: _174  and  _177
REMARK   78  A    between atoms: _177  and  _178
REMARK   79  A    between atoms: _181  and  _183
REMARK   80  A    between atoms: _183  and  _184
REMARK   81  A    between atoms: _183  and  _186
REMARK   82  A    between atoms: _189  and  _191
REMARK   83  A    between atoms: _191  and  _192
REMARK   84  A    between atoms: _191  and  _194
REMARK   85  A    between atoms: _194  and  _195
REMARK   86  A    between atoms: _198  and  _200
REMARK   87  A    between atoms: _200  and  _201
REMARK   88  A    between atoms: _200  and  _203
REMARK   89  A    between atoms: _203  and  _204
REMARK   90  A    between atoms: _208  and  _209
REMARK   91  A    between atoms: _214  and  _216
REMARK   92  A    between atoms: _216  and  _217
REMARK   93  A    between atoms: _216  and  _219
REMARK   94  A    between atoms: _219  and  _220
REMARK   95  A    between atoms: _223  and  _225
REMARK   96  A    between atoms: _225  and  _226
REMARK   97  A    between atoms: _225  and  _228
REMARK   98  A    between atoms: _228  and  _229
REMARK   99  A    between atoms: _234  and  _236
REMARK  100  A    between atoms: _236  and  _237
REMARK  101  A    between atoms: _236  and  _239
REMARK  102  A    between atoms: _239  and  _240
REMARK  103  A    between atoms: _243  and  _245
REMARK  104  A    between atoms: _245  and  _246
REMARK  105  A    between atoms: _245  and  _248
REMARK  106  A    between atoms: _248  and  _249
REMARK  107  A    between atoms: _252  and  _254
REMARK  108  A    between atoms: _254  and  _255
REMARK  109  A    between atoms: _257  and  _259
REMARK  110  A    between atoms: _259  and  _260
REMARK  111  A    between atoms: _259  and  _262
REMARK  112  A    between atoms: _262  and  _263
REMARK  113  A    between atoms: _263  and  _264
REMARK  114  A    between atoms: _264  and  _265
REMARK  115  A    between atoms: _274  and  _276
REMARK  116  A    between atoms: _276  and  _277
REMARK  117  A    between atoms: _276  and  _279
REMARK  118  A    between atoms: _279  and  _280
REMARK  119  A    between atoms: _285  and  _287
REMARK  120  A    between atoms: _287  and  _288
REMARK  121  A    between atoms: _287  and  _290
REMARK  122  A    between atoms: _290  and  _291
REMARK  123  A    between atoms: _291  and  _292
REMARK  124  A    between atoms: _292  and  _293
REMARK  125  A    between atoms: _302  and  _304
REMARK  126  A    between atoms: _304  and  _305
REMARK  127  A    between atoms: _304  and  _307
REMARK  128  A    between atoms: _307  and  _308
REMARK  129  A    between atoms: _311  and  _313
REMARK  130  A    between atoms: _313  and  _314
REMARK  131  A    between atoms: _313  and  _316
REMARK  132  A    between atoms: _316  and  _317
REMARK  133  A    between atoms: _320  and  _322
REMARK  134  A    between atoms: _322  and  _323
REMARK  135  A    between atoms: _322  and  _325
REMARK  136  A    between atoms: _325  and  _326
REMARK  137  A    between atoms: _329  and  _331
REMARK  138  A    between atoms: _331  and  _332
REMARK  139  A    between atoms: _331  and  _334
REMARK  140  A    between atoms: _334  and  _335
REMARK  141  A    between atoms: _338  and  _340
REMARK  142  A    between atoms: _340  and  _341
REMARK  143  A    between atoms: _343  and  _345
REMARK  144  A    between atoms: _345  and  _346
REMARK  145  A    between atoms: _349  and  _351
REMARK  146  A    between atoms: _351  and  _352
REMARK  147  A    between atoms: _351  and  _354
REMARK  148  A    between atoms: _354  and  _355
REMARK  149  A    between atoms: _358  and  _360
REMARK  150  A    between atoms: _360  and  _361
REMARK  151  A    between atoms: _360  and  _363
REMARK  152  A    between atoms: _363  and  _364
REMARK  153  A    between atoms: _364  and  _366
REMARK  154  A    between atoms: _367  and  _369
REMARK  155  A    between atoms: _369  and  _370
REMARK  156  A    between atoms: _369  and  _372
REMARK  157  A    between atoms: _372  and  _373
REMARK  158  A    between atoms: _376  and  _378
REMARK  159  A    between atoms: _378  and  _379
REMARK  160  A    between atoms: _378  and  _381
REMARK  161  A    between atoms: _381  and  _382
REMARK  162  A    between atoms: _385  and  _387
REMARK  163  A    between atoms: _387  and  _388
REMARK  164  A    between atoms: _387  and  _390
REMARK  165  A    between atoms: _390  and  _391
REMARK  166  A    between atoms: _391  and  _392
REMARK  167  A    between atoms: _392  and  _393
REMARK  168  A    between atoms: _393  and  _394
REMARK  169  A    between atoms: _398  and  _400
REMARK  170  A    between atoms: _400  and  _401
REMARK  171  A    between atoms: _400  and  _403
REMARK  172  A    between atoms: _403  and  _404
REMARK  173  A    between atoms: _404  and  _405
REMARK  174  A    between atoms: _407  and  _409
REMARK  175  A    between atoms: _409  and  _410
REMARK  176  A    between atoms: _409  and  _412
REMARK  177  A    between atoms: _415  and  _417
REMARK  178  A    between atoms: _417  and  _418
REMARK  179  A    between atoms: _420  and  _422
REMARK  180  A    between atoms: _422  and  _423
REMARK  181  A    between atoms: _425  and  _427
REMARK  182  A    between atoms: _427  and  _428
REMARK  183  A    between atoms: _427  and  _430
REMARK  184  A    between atoms: _430  and  _431
REMARK  185  A    between atoms: _434  and  _436
REMARK  186  A    between atoms: _436  and  _437
REMARK  187  A    between atoms: _439  and  _441
REMARK  188  A    between atoms: _441  and  _442
REMARK  189  A    between atoms: _444  and  _446
REMARK  190  A    between atoms: _446  and  _447
REMARK  191  A    between atoms: _446  and  _449
REMARK  192  A    between atoms: _449  and  _450
REMARK  193  A    between atoms: _456  and  _458
REMARK  194  A    between atoms: _458  and  _459
REMARK  195  A    between atoms: _458  and  _461
REMARK  196  A    between atoms: _461  and  _462
REMARK  197  A    between atoms: _465  and  _467
REMARK  198  A    between atoms: _467  and  _468
REMARK  199  A    between atoms: _467  and  _470
REMARK  200  A    between atoms: _470  and  _471
REMARK  201  A    between atoms: _474  and  _476
REMARK  202  A    between atoms: _476  and  _477
REMARK  203  A    between atoms: _476  and  _479
REMARK  204  A    between atoms: _479  and  _480
REMARK  205  A    between atoms: _484  and  _485
REMARK  206  A    between atoms: _490  and  _492
REMARK  207  A    between atoms: _492  and  _493
REMARK  208  A    between atoms: _492  and  _495
REMARK  209  A    between atoms: _495  and  _496
REMARK  210  A    between atoms: _499  and  _501
REMARK  211  A    between atoms: _501  and  _502
REMARK  212  A    between atoms: _501  and  _504
REMARK  213  A    between atoms: _504  and  _505
REMARK  214  A    between atoms: _510  and  _512
REMARK  215  A    between atoms: _512  and  _513
REMARK  216  A    between atoms: _512  and  _515
REMARK  217  A    between atoms: _515  and  _516
REMARK  218  A    between atoms: _519  and  _521
REMARK  219  A    between atoms: _521  and  _522
REMARK  220  A    between atoms: _524  and  _526
REMARK  221  A    between atoms: _526  and  _527
REMARK  222  A    between atoms: _526  and  _529
REMARK  223  A    between atoms: _529  and  _530
REMARK  224  A    between atoms: _530  and  _531
REMARK  225  A    between atoms: _531  and  _532
REMARK  226  A    between atoms: _541  and  _543
REMARK  227  A    between atoms: _543  and  _544
REMARK  228  A    between atoms: _543  and  _546
REMARK  229  A    between atoms: _546  and  _547
REMARK                            x       y       z     vdW  Elec       q    Type
REMARK                         _______ _______ _______ _____ _____    ______ ____
ROOT
ATOM      1  NE  ARG A   1       6.606  20.731  15.292  0.00  0.00    -0.265 N 
ATOM      2  HE  ARG A   1       6.533  20.453  16.291  0.00  0.00    +0.259 HD
ATOM      3  CZ  ARG A   1       7.405  20.049  14.469  0.00  0.00    +0.342 C 
ATOM      4  NH2 ARG A   1       8.091  19.018  14.955  0.00  0.00    -0.292 N 
ATOM      5 HH21 ARG A   1       7.998  18.758  15.958  0.00  0.00    +0.255 HD
ATOM      6 HH22 ARG A   1       8.720  18.472  14.332  0.00  0.00    +0.255 HD
ATOM      7  NH1 ARG A   1       7.522  20.390  13.202  0.00  0.00    -0.292 N 
ATOM      8 HH11 ARG A   1       6.987  21.201  12.830  0.00  0.00    +0.255 HD
ATOM      9 HH12 ARG A   1       8.149  19.848  12.573  0.00  0.00    +0.255 HD
ENDROOT
BRANCH   1  10
ATOM     10  CD  ARG A   1       5.834  21.867  14.794  0.00  0.00    +0.174 C 
BRANCH  10  11
ATOM     11  CG  ARG A   1       5.227  22.595  15.984  0.00  0.00    +0.045 C 
BRANCH  11  12
ATOM     12  CB  ARG A   1       4.571  23.892  15.611  0.00  0.00    +0.029 C 
BRANCH  12  13
ATOM     13  CA  ARG A   1       3.934  24.648  16.781  0.00  0.00    +0.133 C 
BRANCH  13  14
ATOM     14  N   ARG A   1       2.761  23.928  17.280  0.00  0.00    -0.239 NA
ATOM     15  H   ARG A   1       2.483  23.022  16.851  0.00  0.00    +0.142 HD
ENDBRANCH  13  14
BRANCH  13  16
ATOM     16  C   ARG A   1       3.585  26.064  16.326  0.00  0.00    +0.224 C 
ATOM     17  O   ARG A   1       2.604  26.191  15.582  0.00  0.00    -0.287 OA
ENDBRANCH  13  16
ENDBRANCH  12  13
ENDBRANCH  11  12
ENDBRANCH  10  11
ENDBRANCH   1  10
TORSDOF 6
REMARK  Name = ../refined-set-2016/3s54/3s54_pocket.pdb
REMARK  229 active torsions:
REMARK  status: ('A' for Active; 'I' for Inactive)
REMARK    1  A    between atoms: _1  and  _3
REMARK    2  A    between atoms: _3  and  _4
REMARK    3  A    between atoms: _3  and  _6
REMARK    4  A    between atoms: _6  and  _7
REMARK    5  A    between atoms: _7  and  _8
REMARK    6  A    between atoms: _8  and  _9
REMARK    7  A    between atoms: _18  and  _20
REMARK    8  A    between atoms: _20  and  _21
REMARK    9  A    between atoms: _20  and  _23
REMARK   10  A    between atoms: _23  and  _24
REMARK   11  A    between atoms: _27  and  _29
REMARK   12  A    between atoms: _29  and  _30
REMARK   13  A    between atoms: _29  and  _32
REMARK   14  A    between atoms: _32  and  _33
REMARK   15  A    between atoms: _36  and  _38
REMARK   16  A    between atoms: _38  and  _39
REMARK   17  A    between atoms: _38  and  _41
REMARK   18  A    between atoms: _41  and  _42
REMARK   19  A    between atoms: _45  and  _47
REMARK   20  A    between atoms: _47  and  _48
REMARK   21  A    between atoms: _47  and  _50
REMARK   22  A    between atoms: _50  and  _51
REMARK   23  A    between atoms: _54  and  _56
REMARK   24  A    between atoms: _56  and  _57
REMARK   25  A    between atoms: _59  and  _61
REMARK   26  A    between atoms: _61  and  _62
REMARK   27  A    between atoms: _65  and  _67
REMARK   28  A    between atoms: _67  and  _68
REMARK   29  A    between atoms: _67  and  _70
REMARK   30  A    between atoms: _70  and  _71
REMARK   31  A    between atoms: _74  and  _76
REMARK   32  A    between atoms: _76  and  _77
REMARK   33  A    between atoms: _76  and  _79
REMARK   34  A    between atoms: _79  and  _80
REMARK   35  A    between atoms: _80  and  _82
REMARK   36  A    between atoms: _83  and  _85
REMARK   37  A    between atoms: _85  and  _86
REMARK   38  A    between atoms: _85  and  _88
REMARK   39  A    between atoms: _88  and  _89
REMARK   40  A    between atoms: _92  and  _94
REMARK   41  A    between atoms: _94  and  _95
REMARK   42  A    between atoms: _94  and  _97
REMARK   43  A    between atoms: _97  and  _98
REMARK   44  A    between atoms: _101  and  _103
REMARK   45  A    between atoms: _103  and  _104
REMARK   46  A    between atoms: _103  and  _106
REMARK   47  A    between atoms: _106  and  _107
REMARK   48  A    between atoms: _107  and  _108
REMARK   49  A    between atoms: _108  and  _109
REMARK   50  A    between atoms: _109  and  _110
REMARK   51  A    between atoms: _114  and  _116
REMARK   52  A    between atoms: _116  and  _117
REMARK   53  A    between atoms: _116  and  _119
REMARK   54  A    between atoms: _119  and  _120
REMARK   55  A    between atoms: _120  and  _121
REMARK   56  A    between atoms: _123  and  _125
REMARK   57  A    between atoms: _125  and  _126
REMARK   58  A    between atoms: _125  and  _128
REMARK   59  A    between atoms: _131  and  _133
REMARK   60  A    between atoms: _133  and  _134
REMARK   61  A    between atoms: _136  and  _138
REMARK   62  A    between atoms: _138  and  _139
REMARK   63  A    between atoms: _141  and  _143
REMARK   64  A    between atoms: _143  and  _144
REMARK   65  A    between atoms: _143  and  _146
REMARK   66  A    between atoms: _146  and  _147
REMARK   67  A    between atoms: _150  and  _152
REMARK   68  A    between atoms: _152  and  _153
REMARK   69  A    between atoms: _155  and  _157
REMARK   70  A    between atoms: _157  and  _158
REMARK   71  A    between atoms: _160  and  _162
REMARK   72  A    between atoms: _162  and  _163
REMARK   73  A    between atoms: _162  and  _165
REMARK   74  A    between atoms: _165  and  _166
REMARK   75  A    between atoms: _172  and  _174
REMARK   76  A    between atoms: _174  and  _175
REMARK   77  A    between atoms: _174  and  _177
REMARK   78  A    between atoms: _177  and  _178
REMARK   79  A    between atoms: _181  and  _183
REMARK   80  A    between atoms: _183  and  _184
REMARK   81  A    between atoms: _183  and  _186
REMARK   82  A    between atoms: _189  and  _191
REMARK   83  A    between atoms: _191  and  _192
REMARK   84  A    between atoms: _191  and  _194
REMARK   85  A    between atoms: _194  and  _195
REMARK   86  A    between atoms: _198  and  _200
REMARK   87  A    between atoms: _200  and  _201
REMARK   88  A    between atoms: _200  and  _203
REMARK   89  A    between atoms: _203  and  _204
REMARK   90  A    between atoms: _208  and  _209
REMARK   91  A    between atoms: _214  and  _216
REMARK   92  A    between atoms: _216  and  _217
REMARK   93  A    between atoms: _216  and  _219
REMARK   94  A    between atoms: _219  and  _220
REMARK   95  A    between atoms: _223  and  _225
REMARK   96  A    between atoms: _225  and  _226
REMARK   97  A    between atoms: _225  and  _228
REMARK   98  A    between atoms: _228  and  _229
REMARK   99  A    between atoms: _234  and  _236
REMARK  100  A    between atoms: _236  and  _237
REMARK  101  A    between atoms: _236  and  _239
REMARK  102  A    between atoms: _239  and  _240
REMARK  103  A    between atoms: _243  and  _245
REMARK  104  A    between atoms: _245  and  _246
REMARK  105  A    between atoms: _245  and  _248
REMARK  106  A    between atoms: _248  and  _249
REMARK  107  A    between atoms: _252  and  _254
REMARK  108  A    between atoms: _254  and  _255
REMARK  109  A    between atoms: _257  and  _259
REMARK  110  A    between atoms: _259  and  _260
REMARK  111  A    between atoms: _259  and  _262
REMARK  112  A    between atoms: _262  and  _263
REMARK  113  A    between atoms: _263  and  _264
REMARK  114  A    between atoms: _264  and  _265
REMARK  115  A    between atoms: _274  and  _276
REMARK  116  A    between atoms: _276  and  _277
REMARK  117  A    between atoms: _276  and  _279
REMARK  118  A    between atoms: _279  and  _280
REMARK  119  A    between atoms: _285  and  _287
REMARK  120  A    between atoms: _287  and  _288
REMARK  121  A    between atoms: _287  and  _290
REMARK  122  A    between atoms: _290  and  _291
REMARK  123  A    between atoms: _291  and  _292
REMARK  124  A    between atoms: _292  and  _293
REMARK  125  A    between atoms: _302  and  _304
REMARK  126  A    between atoms: _304  and  _305
REMARK  127  A    between atoms: _304  and  _307
REMARK  128  A    between atoms: _307  and  _308
REMARK  129  A    between atoms: _311  and  _313
REMARK  130  A    between atoms: _313  and  _314
REMARK  131  A    between atoms: _313  and  _316
REMARK  132  A    between atoms: _316  and  _317
REMARK  133  A    between atoms: _320  and  _322
REMARK  134  A    between atoms: _322  and  _323
REMARK  135  A    between atoms: _322  and  _325
REMARK  136  A    between atoms: _325  and  _326
REMARK  137  A    between atoms: _329  and  _331
REMARK  138  A    between atoms: _331  and  _332
REMARK  139  A    between atoms: _331  and  _334
REMARK  140  A    between atoms: _334  and  _335
REMARK  141  A    between atoms: _338  and  _340
REMARK  142  A    between atoms: _340  and  _341
REMARK  143  A    between atoms: _343  and  _345
REMARK  144  A    between atoms: _345  and  _346
REMARK  145  A    between atoms: _349  and  _351
REMARK  146  A    between atoms: _351  and  _352
REMARK  147  A    between atoms: _351  and  _354
REMARK  148  A    between atoms: _354  and  _355
REMARK  149  A    between atoms: _358  and  _360
REMARK  150  A    between atoms: _360  and  _361
REMARK  151  A    between atoms: _360  and  _363
REMARK  152  A    between atoms: _363  and  _364
REMARK  153  A    between atoms: _364  and  _366
REMARK  154  A    between atoms: _367  and  _369
REMARK  155  A    between atoms: _369  and  _370
REMARK  156  A    between atoms: _369  and  _372
REMARK  157  A    between atoms: _372  and  _373
REMARK  158  A    between atoms: _376  and  _378
REMARK  159  A    between atoms: _378  and  _379
REMARK  160  A    between atoms: _378  and  _381
REMARK  161  A    between atoms: _381  and  _382
REMARK  162  A    between atoms: _385  and  _387
REMARK  163  A    between atoms: _387  and  _388
REMARK  164  A    between atoms: _387  and  _390
REMARK  165  A    between atoms: _390  and  _391
REMARK  166  A    between atoms: _391  and  _392
REMARK  167  A    between atoms: _392  and  _393
REMARK  168  A    between atoms: _393  and  _394
REMARK  169  A    between atoms: _398  and  _400
REMARK  170  A    between atoms: _400  and  _401
REMARK  171  A    between atoms: _400  and  _403
REMARK  172  A    between atoms: _403  and  _404
REMARK  173  A    between atoms: _404  and  _405
REMARK  174  A    between atoms: _407  and  _409
REMARK  175  A    between atoms: _409  and  _410
REMARK  176  A    between atoms: _409  and  _412
REMARK  177  A    between atoms: _415  and  _417
REMARK  178  A    between atoms: _417  and  _418
REMARK  179  A    between atoms: _420  and  _422
REMARK  180  A    between atoms: _422  and  _423
REMARK  181  A    between atoms: _425  and  _427
REMARK  182  A    between atoms: _427  and  _428
REMARK  183  A    between atoms: _427  and  _430
REMARK  184  A    between atoms: _430  and  _431
REMARK  185  A    between atoms: _434  and  _436
REMARK  186  A    between atoms: _436  and  _437
REMARK  187  A    between atoms: _439  and  _441
REMARK  188  A    between atoms: _441  and  _442
REMARK  189  A    between atoms: _444  and  _446
REMARK  190  A    between atoms: _446  and  _447
REMARK  191  A    between atoms: _446  and  _449
REMARK  192  A    between atoms: _449  and  _450
REMARK  193  A    between atoms: _456  and  _458
REMARK  194  A    between atoms: _458  and  _459
REMARK  195  A    between atoms: _458  and  _461
REMARK  196  A    between atoms: _461  and  _462
REMARK  197  A    between atoms: _465  and  _467
REMARK  198  A    between atoms: _467  and  _468
REMARK  199  A    between atoms: _467  and  _470
REMARK  200  A    between atoms: _470  and  _471
REMARK  201  A    between atoms: _474  and  _476
REMARK  202  A    between atoms: _476  and  _477
REMARK  203  A    between atoms: _476  and  _479
REMARK  204  A    between atoms: _479  and  _480
REMARK  205  A    between atoms: _484  and  _485
REMARK  206  A    between atoms: _490  and  _492
REMARK  207  A    between atoms: _492  and  _493
REMARK  208  A    between atoms: _492  and  _495
REMARK  209  A    between atoms: _495  and  _496
REMARK  210  A    between atoms: _499  and  _501
REMARK  211  A    between atoms: _501  and  _502
REMARK  212  A    between atoms: _501  and  _504
REMARK  213  A    between atoms: _504  and  _505
REMARK  214  A    between atoms: _510  and  _512
REMARK  215  A    between atoms: _512  and  _513
REMARK  216  A    between atoms: _512  and  _515
REMARK  217  A    between atoms: _515  and  _516
REMARK  218  A    between atoms: _519  and  _521
REMARK  219  A    between atoms: _521  and  _522
REMARK  220  A    between atoms: _524  and  _526
REMARK  221  A    between atoms: _526  and  _527
REMARK  222  A    between atoms: _526  and  _529
REMARK  223  A    between atoms: _529  and  _530
REMARK  224  A    between atoms: _530  and  _531
REMARK  225  A    between atoms: _531  and  _532
REMARK  226  A    between atoms: _541  and  _543
REMARK  227  A    between atoms: _543  and  _544
REMARK  228  A    between atoms: _543  and  _546
REMARK  229  A    between atoms: _546  and  _547
REMARK                            x       y       z     vdW  Elec       q    Type
REMARK                         _______ _______ _______ _____ _____    ______ ____
ROOT
ATOM      1  C   GLY A   5      16.895  28.168  19.814  0.00  0.00    +0.243 C 
ATOM      2  O   GLY A   5      17.947  27.500  19.930  0.00  0.00    -0.273 OA
ATOM      3  N   ALA A   6      16.648  28.900  18.736  0.00  0.00    -0.297 N 
ATOM      4  H   ALA A   6      15.751  29.424  18.690  0.00  0.00    +0.150 HD
ENDROOT
BRANCH   3   5
ATOM      5  CA  ALA A   6      17.569  29.008  17.613  0.00  0.00    +0.149 C 
ATOM      6  CB  ALA A   6      16.831  28.856  16.307  0.00  0.00    +0.031 C 
BRANCH   5   7
ATOM      7  C   ALA A   6      18.257  30.359  17.647  0.00  0.00    +0.241 C 
ATOM      8  N   ASP A   7      19.595  30.356  17.658  0.00  0.00    -0.297 N 
ATOM      9  H   ASP A   7      20.123  29.461  17.699  0.00  0.00    +0.150 HD
ATOM     10  O   ALA A   6      17.608  31.382  17.646  0.00  0.00    -0.273 OA
BRANCH   8  11
ATOM     11  CA  ASP A   7      20.296  31.629  17.611  0.00  0.00    +0.160 C 
BRANCH  11  12
ATOM     12  C   ASP A   7      20.098  32.334  16.271  0.00  0.00    +0.241 C 
ATOM     13  O   ASP A   7      19.992  33.575  16.199  0.00  0.00    -0.273 OA
ATOM     14  N   UNK A   8      20.108  31.553  15.195  0.00  0.00    -0.297 N 
ATOM     15  H   UNK A   8      20.132  30.526  15.359  0.00  0.00    +0.150 HD
BRANCH  14  16
ATOM     16  C   UNK A   8      20.088  31.998  13.813  0.00  0.00    +0.160 C 
BRANCH  16  17
ATOM     17  C   UNK A   8      18.812  31.523  13.107  0.00  0.00    +0.241 C 
ATOM     18  O   UNK A   8      18.108  30.627  13.539  0.00  0.00    -0.273 OA
ATOM     19  N   THR A   9      18.499  32.182  12.014  0.00  0.00    -0.295 N 
ATOM     20  H   THR A   9      19.072  33.023  11.799  0.00  0.00    +0.150 HD
BRANCH  19  21
ATOM     21  CA  THR A   9      17.457  31.868  11.091  0.00  0.00    +0.176 C 
BRANCH  21  22
ATOM     22  C   THR A   9      17.999  30.934  10.024  0.00  0.00    +0.243 C 
ATOM     23  N   ILE A  10      17.312  29.826   9.760  0.00  0.00    -0.298 N 
ATOM     24  H   ILE A  10      16.438  29.628  10.287  0.00  0.00    +0.150 HD
ATOM     25  O   THR A   9      19.043  31.259   9.451  0.00  0.00    -0.273 OA
BRANCH  23  26
ATOM     26  CA  ILE A  10      17.764  28.888   8.747  0.00  0.00    +0.137 C 
BRANCH  26  27
ATOM     27  C   ILE A  10      16.564  28.463   7.903  0.00  0.00    +0.227 C 
ATOM     28  O   ILE A  10      15.531  28.058   8.448  0.00  0.00    -0.286 OA
ENDBRANCH  26  27
BRANCH  26  29
ATOM     29  CB  ILE A  10      18.491  27.650   9.315  0.00  0.00    +0.026 C 
ATOM     30  CG2 ILE A  10      17.629  26.897  10.307  0.00  0.00    +0.002 C 
BRANCH  29  31
ATOM     31  CG1 ILE A  10      19.034  26.695   8.246  0.00  0.00    +0.002 C 
ATOM     32  CD1 ILE A  10      19.938  25.611   8.792  0.00  0.00    +0.000 C 
ENDBRANCH  29  31
ENDBRANCH  26  29
ENDBRANCH  23  26
ENDBRANCH  21  22
BRANCH  21  33
ATOM     33  CB  THR A   9      16.912  33.171  10.504  0.00  0.00    +0.137 C 
ATOM     34  CG2 THR A   9      15.898  32.915   9.422  0.00  0.00    +0.034 C 
BRANCH  33  35
ATOM     35  OG1 THR A   9      16.264  33.907  11.565  0.00  0.00    -0.382 OA
ATOM     36  HG1 THR A   9      16.922  34.103  12.278  0.00  0.00    +0.210 HD
ENDBRANCH  33  35
ENDBRANCH  21  33
ENDBRANCH  19  21
ENDBRANCH  16  17
BRANCH  16  37
ATOM     37  C   UNK A   8      21.304  31.500  13.022  0.00  0.00    +0.142 C 
BRANCH  37  38
ATOM     38  C   UNK A   8      22.573  31.375  13.847  0.00  0.00    +0.357 C 
ATOM     39  O   UNK A   8      22.955  32.403  14.452  0.00  0.00    -0.247 OA
BRANCH  38  40
ATOM     40  O   UNK A   8      23.223  30.310  13.918  0.00  0.00    -0.265 OA
ATOM     41  O   UNK A   8      23.994  29.477  14.088  0.00  0.00    +0.031 OA
ENDBRANCH  38  40
ENDBRANCH  37  38
ENDBRANCH  16  37
ENDBRANCH  14  16
ENDBRANCH  11  12
BRANCH  11  42
ATOM     42  CB  ASP A   7      21.799  31.409  17.831  0.00  0.00    +0.143 C 
BRANCH  42  43
ATOM     43  CG  ASP A   7      22.196  30.796  19.156  0.00  0.00    +0.367 C 
ATOM     44  OD2 ASP A   7      21.489  30.860  20.182  0.00  0.00    -0.246 OA
ATOM     45  OD1 ASP A   7      23.333  30.245  19.178  0.00  0.00    -0.246 OA
ENDBRANCH  42  43
ENDBRANCH  11  42
ENDBRANCH   8  11
ENDBRANCH   5   7
ENDBRANCH   3   5
BRANCH   1  46
ATOM     46  CA  GLY A   5      15.883  28.143  20.935  0.00  0.00    +0.176 C 
BRANCH  46  49
ATOM     47  C   THR A   4      14.670  30.261  20.966  0.00  0.00    +0.243 C 
ATOM     48  O   THR A   4      15.620  30.829  21.500  0.00  0.00    -0.273 OA
ATOM     49  N   GLY A   5      14.712  28.964  20.687  0.00  0.00    -0.295 N 
ATOM     50  H   GLY A   5      13.869  28.517  20.273  0.00  0.00    +0.150 HD
BRANCH  47  51
ATOM     51  CA  THR A   4      13.407  31.008  20.597  0.00  0.00    +0.176 C 
BRANCH  51  53
ATOM     52  C   ASP A   3      13.000  30.136  18.385  0.00  0.00    +0.241 C 
ATOM     53  N   THR A   4      12.584  30.294  19.650  0.00  0.00    -0.295 N 
ATOM     54  H   THR A   4      11.668  29.902  19.949  0.00  0.00    +0.150 HD
ATOM     55  O   ASP A   3      14.084  30.513  17.991  0.00  0.00    -0.273 OA
BRANCH  52  56
ATOM     56  CA  ASP A   3      12.039  29.390  17.459  0.00  0.00    +0.160 C 
BRANCH  56  59
ATOM     57  C   LEU A   2       9.925  30.172  16.585  0.00  0.00    +0.241 C 
ATOM     58  O   LEU A   2       9.256  29.545  17.426  0.00  0.00    -0.273 OA
ATOM     59  N   ASP A   3      11.238  30.246  16.600  0.00  0.00    -0.297 N 
ATOM     60  H   ASP A   3      11.715  30.934  15.982  0.00  0.00    +0.150 HD
BRANCH  57  61
ATOM     61  CA  LEU A   2       9.226  30.887  15.456  0.00  0.00    +0.149 C 
BRANCH  61  63
ATOM     62  C   LEU A   1       9.307  29.197  13.676  0.00  0.00    +0.238 C 
ATOM     63  N   LEU A   2       8.620  29.886  14.589  0.00  0.00    -0.297 N 
ATOM     64  H   LEU A   2       7.602  29.699  14.686  0.00  0.00    +0.150 HD
ATOM     65  O   LEU A   1      10.500  29.435  13.427  0.00  0.00    -0.274 OA
BRANCH  62  66
ATOM     66  CA  LEU A   1       8.633  28.077  12.909  0.00  0.00    +0.145 C 
BRANCH  66  67
ATOM     67  N   LEU A   1       8.799  28.280  11.493  0.00  0.00    -0.238 NA
ATOM     68  H   LEU A   1       9.649  27.880  11.047  0.00  0.00    +0.142 HD
ENDBRANCH  66  67
BRANCH  66  69
ATOM     69  CB  LEU A   1       9.307  26.717  13.195  0.00  0.00    +0.026 C 
BRANCH  69  70
ATOM     70  CG  LEU A   1       9.306  26.236  14.623  0.00  0.00    +0.002 C 
ATOM     71  CD2 LEU A   1       7.884  25.894  15.048  0.00  0.00    +0.000 C 
ATOM     72  CD1 LEU A   1      10.206  25.044  14.784  0.00  0.00    +0.000 C 
ENDBRANCH  69  70
ENDBRANCH  66  69
ENDBRANCH  62  66
ENDBRANCH  61  63
BRANCH  61  73
ATOM     73  CB  LEU A   2       8.178  31.841  16.024  0.00  0.00    +0.029 C 
BRANCH  73  74
ATOM     74  CG  LEU A   2       7.305  32.567  14.989  0.00  0.00    +0.002 C 
ATOM     75  CD2 LEU A   2       6.295  33.477  15.693  0.00  0.00    +0.000 C 
ATOM     76  CD1 LEU A   2       8.143  33.341  14.000  0.00  0.00    +0.000 C 
ENDBRANCH  73  74
ENDBRANCH  61  73
ENDBRANCH  57  61
ENDBRANCH  56  59
BRANCH  56  77
ATOM     77  CB  ASP A   3      12.869  28.460  16.585  0.00  0.00    +0.143 C 
BRANCH  77  78
ATOM     78  CG  ASP A   3      13.467  27.342  17.408  0.00  0.00    +0.367 C 
ATOM     79  OD2 ASP A   3      13.398  27.357  18.668  0.00  0.00    -0.246 OA
ATOM     80  OD1 ASP A   3      14.023  26.447  16.713  0.00  0.00    -0.246 OA
ENDBRANCH  77  78
ENDBRANCH  56  77
ENDBRANCH  52  56
ENDBRANCH  51  53
BRANCH  51  81
ATOM     81  CB  THR A   4      12.607  31.275  21.876  0.00  0.00    +0.137 C 
ATOM     82  CG2 THR A   4      11.380  32.126  21.589  0.00  0.00    +0.034 C 
BRANCH  81  83
ATOM     83  OG1 THR A   4      12.155  30.047  22.469  0.00  0.00    -0.382 OA
ATOM     84  HG1 THR A   4      12.937  29.484  22.696  0.00  0.00    +0.210 HD
ENDBRANCH  81  83
ENDBRANCH  51  81
ENDBRANCH  47  51
ENDBRANCH  46  49
ENDBRANCH   1  46
TORSDOF 37
REMARK  Name = ../refined-set-2016/3s54/3s54_pocket.pdb
REMARK  229 active torsions:
REMARK  status: ('A' for Active; 'I' for Inactive)
REMARK    1  A    between atoms: _1  and  _3
REMARK    2  A    between atoms: _3  and  _4
REMARK    3  A    between atoms: _3  and  _6
REMARK    4  A    between atoms: _6  and  _7
REMARK    5  A    between atoms: _7  and  _8
REMARK    6  A    between atoms: _8  and  _9
REMARK    7  A    between atoms: _18  and  _20
REMARK    8  A    between atoms: _20  and  _21
REMARK    9  A    between atoms: _20  and  _23
REMARK   10  A    between atoms: _23  and  _24
REMARK   11  A    between atoms: _27  and  _29
REMARK   12  A    between atoms: _29  and  _30
REMARK   13  A    between atoms: _29  and  _32
REMARK   14  A    between atoms: _32  and  _33
REMARK   15  A    between atoms: _36  and  _38
REMARK   16  A    between atoms: _38  and  _39
REMARK   17  A    between atoms: _38  and  _41
REMARK   18  A    between atoms: _41  and  _42
REMARK   19  A    between atoms: _45  and  _47
REMARK   20  A    between atoms: _47  and  _48
REMARK   21  A    between atoms: _47  and  _50
REMARK   22  A    between atoms: _50  and  _51
REMARK   23  A    between atoms: _54  and  _56
REMARK   24  A    between atoms: _56  and  _57
REMARK   25  A    between atoms: _59  and  _61
REMARK   26  A    between atoms: _61  and  _62
REMARK   27  A    between atoms: _65  and  _67
REMARK   28  A    between atoms: _67  and  _68
REMARK   29  A    between atoms: _67  and  _70
REMARK   30  A    between atoms: _70  and  _71
REMARK   31  A    between atoms: _74  and  _76
REMARK   32  A    between atoms: _76  and  _77
REMARK   33  A    between atoms: _76  and  _79
REMARK   34  A    between atoms: _79  and  _80
REMARK   35  A    between atoms: _80  and  _82
REMARK   36  A    between atoms: _83  and  _85
REMARK   37  A    between atoms: _85  and  _86
REMARK   38  A    between atoms: _85  and  _88
REMARK   39  A    between atoms: _88  and  _89
REMARK   40  A    between atoms: _92  and  _94
REMARK   41  A    between atoms: _94  and  _95
REMARK   42  A    between atoms: _94  and  _97
REMARK   43  A    between atoms: _97  and  _98
REMARK   44  A    between atoms: _101  and  _103
REMARK   45  A    between atoms: _103  and  _104
REMARK   46  A    between atoms: _103  and  _106
REMARK   47  A    between atoms: _106  and  _107
REMARK   48  A    between atoms: _107  and  _108
REMARK   49  A    between atoms: _108  and  _109
REMARK   50  A    between atoms: _109  and  _110
REMARK   51  A    between atoms: _114  and  _116
REMARK   52  A    between atoms: _116  and  _117
REMARK   53  A    between atoms: _116  and  _119
REMARK   54  A    between atoms: _119  and  _120
REMARK   55  A    between atoms: _120  and  _121
REMARK   56  A    between atoms: _123  and  _125
REMARK   57  A    between atoms: _125  and  _126
REMARK   58  A    between atoms: _125  and  _128
REMARK   59  A    between atoms: _131  and  _133
REMARK   60  A    between atoms: _133  and  _134
REMARK   61  A    between atoms: _136  and  _138
REMARK   62  A    between atoms: _138  and  _139
REMARK   63  A    between atoms: _141  and  _143
REMARK   64  A    between atoms: _143  and  _144
REMARK   65  A    between atoms: _143  and  _146
REMARK   66  A    between atoms: _146  and  _147
REMARK   67  A    between atoms: _150  and  _152
REMARK   68  A    between atoms: _152  and  _153
REMARK   69  A    between atoms: _155  and  _157
REMARK   70  A    between atoms: _157  and  _158
REMARK   71  A    between atoms: _160  and  _162
REMARK   72  A    between atoms: _162  and  _163
REMARK   73  A    between atoms: _162  and  _165
REMARK   74  A    between atoms: _165  and  _166
REMARK   75  A    between atoms: _172  and  _174
REMARK   76  A    between atoms: _174  and  _175
REMARK   77  A    between atoms: _174  and  _177
REMARK   78  A    between atoms: _177  and  _178
REMARK   79  A    between atoms: _181  and  _183
REMARK   80  A    between atoms: _183  and  _184
REMARK   81  A    between atoms: _183  and  _186
REMARK   82  A    between atoms: _189  and  _191
REMARK   83  A    between atoms: _191  and  _192
REMARK   84  A    between atoms: _191  and  _194
REMARK   85  A    between atoms: _194  and  _195
REMARK   86  A    between atoms: _198  and  _200
REMARK   87  A    between atoms: _200  and  _201
REMARK   88  A    between atoms: _200  and  _203
REMARK   89  A    between atoms: _203  and  _204
REMARK   90  A    between atoms: _208  and  _209
REMARK   91  A    between atoms: _214  and  _216
REMARK   92  A    between atoms: _216  and  _217
REMARK   93  A    between atoms: _216  and  _219
REMARK   94  A    between atoms: _219  and  _220
REMARK   95  A    between atoms: _223  and  _225
REMARK   96  A    between atoms: _225  and  _226
REMARK   97  A    between atoms: _225  and  _228
REMARK   98  A    between atoms: _228  and  _229
REMARK   99  A    between atoms: _234  and  _236
REMARK  100  A    between atoms: _236  and  _237
REMARK  101  A    between atoms: _236  and  _239
REMARK  102  A    between atoms: _239  and  _240
REMARK  103  A    between atoms: _243  and  _245
REMARK  104  A    between atoms: _245  and  _246
REMARK  105  A    between atoms: _245  and  _248
REMARK  106  A    between atoms: _248  and  _249
REMARK  107  A    between atoms: _252  and  _254
REMARK  108  A    between atoms: _254  and  _255
REMARK  109  A    between atoms: _257  and  _259
REMARK  110  A    between atoms: _259  and  _260
REMARK  111  A    between atoms: _259  and  _262
REMARK  112  A    between atoms: _262  and  _263
REMARK  113  A    between atoms: _263  and  _264
REMARK  114  A    between atoms: _264  and  _265
REMARK  115  A    between atoms: _274  and  _276
REMARK  116  A    between atoms: _276  and  _277
REMARK  117  A    between atoms: _276  and  _279
REMARK  118  A    between atoms: _279  and  _280
REMARK  119  A    between atoms: _285  and  _287
REMARK  120  A    between atoms: _287  and  _288
REMARK  121  A    between atoms: _287  and  _290
REMARK  122  A    between atoms: _290  and  _291
REMARK  123  A    between atoms: _291  and  _292
REMARK  124  A    between atoms: _292  and  _293
REMARK  125  A    between atoms: _302  and  _304
REMARK  126  A    between atoms: _304  and  _305
REMARK  127  A    between atoms: _304  and  _307
REMARK  128  A    between atoms: _307  and  _308
REMARK  129  A    between atoms: _311  and  _313
REMARK  130  A    between atoms: _313  and  _314
REMARK  131  A    between atoms: _313  and  _316
REMARK  132  A    between atoms: _316  and  _317
REMARK  133  A    between atoms: _320  and  _322
REMARK  134  A    between atoms: _322  and  _323
REMARK  135  A    between atoms: _322  and  _325
REMARK  136  A    between atoms: _325  and  _326
REMARK  137  A    between atoms: _329  and  _331
REMARK  138  A    between atoms: _331  and  _332
REMARK  139  A    between atoms: _331  and  _334
REMARK  140  A    between atoms: _334  and  _335
REMARK  141  A    between atoms: _338  and  _340
REMARK  142  A    between atoms: _340  and  _341
REMARK  143  A    between atoms: _343  and  _345
REMARK  144  A    between atoms: _345  and  _346
REMARK  145  A    between atoms: _349  and  _351
REMARK  146  A    between atoms: _351  and  _352
REMARK  147  A    between atoms: _351  and  _354
REMARK  148  A    between atoms: _354  and  _355
REMARK  149  A    between atoms: _358  and  _360
REMARK  150  A    between atoms: _360  and  _361
REMARK  151  A    between atoms: _360  and  _363
REMARK  152  A    between atoms: _363  and  _364
REMARK  153  A    between atoms: _364  and  _366
REMARK  154  A    between atoms: _367  and  _369
REMARK  155  A    between atoms: _369  and  _370
REMARK  156  A    between atoms: _369  and  _372
REMARK  157  A    between atoms: _372  and  _373
REMARK  158  A    between atoms: _376  and  _378
REMARK  159  A    between atoms: _378  and  _379
REMARK  160  A    between atoms: _378  and  _381
REMARK  161  A    between atoms: _381  and  _382
REMARK  162  A    between atoms: _385  and  _387
REMARK  163  A    between atoms: _387  and  _388
REMARK  164  A    between atoms: _387  and  _390
REMARK  165  A    between atoms: _390  and  _391
REMARK  166  A    between atoms: _391  and  _392
REMARK  167  A    between atoms: _392  and  _393
REMARK  168  A    between atoms: _393  and  _394
REMARK  169  A    between atoms: _398  and  _400
REMARK  170  A    between atoms: _400  and  _401
REMARK  171  A    between atoms: _400  and  _403
REMARK  172  A    between atoms: _403  and  _404
REMARK  173  A    between atoms: _404  and  _405
REMARK  174  A    between atoms: _407  and  _409
REMARK  175  A    between atoms: _409  and  _410
REMARK  176  A    between atoms: _409  and  _412
REMARK  177  A    between atoms: _415  and  _417
REMARK  178  A    between atoms: _417  and  _418
REMARK  179  A    between atoms: _420  and  _422
REMARK  180  A    between atoms: _422  and  _423
REMARK  181  A    between atoms: _425  and  _427
REMARK  182  A    between atoms: _427  and  _428
REMARK  183  A    between atoms: _427  and  _430
REMARK  184  A    between atoms: _430  and  _431
REMARK  185  A    between atoms: _434  and  _436
REMARK  186  A    between atoms: _436  and  _437
REMARK  187  A    between atoms: _439  and  _441
REMARK  188  A    between atoms: _441  and  _442
REMARK  189  A    between atoms: _444  and  _446
REMARK  190  A    between atoms: _446  and  _447
REMARK  191  A    between atoms: _446  and  _449
REMARK  192  A    between atoms: _449  and  _450
REMARK  193  A    between atoms: _456  and  _458
REMARK  194  A    between atoms: _458  and  _459
REMARK  195  A    between atoms: _458  and  _461
REMARK  196  A    between atoms: _461  and  _462
REMARK  197  A    between atoms: _465  and  _467
REMARK  198  A    between atoms: _467  and  _468
REMARK  199  A    between atoms: _467  and  _470
REMARK  200  A    between atoms: _470  and  _471
REMARK  201  A    between atoms: _474  and  _476
REMARK  202  A    between atoms: _476  and  _477
REMARK  203  A    between atoms: _476  and  _479
REMARK  204  A    between atoms: _479  and  _480
REMARK  205  A    between atoms: _484  and  _485
REMARK  206  A    between atoms: _490  and  _492
REMARK  207  A    between atoms: _492  and  _493
REMARK  208  A    between atoms: _492  and  _495
REMARK  209  A    between atoms: _495  and  _496
REMARK  210  A    between atoms: _499  and  _501
REMARK  211  A    between atoms: _501  and  _502
REMARK  212  A    between atoms: _501  and  _504
REMARK  213  A    between atoms: _504  and  _505
REMARK  214  A    between atoms: _510  and  _512
REMARK  215  A    between atoms: _512  and  _513
REMARK  216  A    between atoms: _512  and  _515
REMARK  217  A    between atoms: _515  and  _516
REMARK  218  A    between atoms: _519  and  _521
REMARK  219  A    between atoms: _521  and  _522
REMARK  220  A    between atoms: _524  and  _526
REMARK  221  A    between atoms: _526  and  _527
REMARK  222  A    between atoms: _526  and  _529
REMARK  223  A    between atoms: _529  and  _530
REMARK  224  A    between atoms: _530  and  _531
REMARK  225  A    between atoms: _531  and  _532
REMARK  226  A    between atoms: _541  and  _543
REMARK  227  A    between atoms: _543  and  _544
REMARK  228  A    between atoms: _543  and  _546
REMARK  229  A    between atoms: _546  and  _547
REMARK                            x       y       z     vdW  Elec       q    Type
REMARK                         _______ _______ _______ _____ _____    ______ ____
ROOT
ATOM      1  C   GLY A   5      21.737  19.601  17.492  0.00  0.00    +0.243 C 
ATOM      2  N   ILE A   6      20.525  19.188  17.866  0.00  0.00    -0.297 N 
ATOM      3  H   ILE A   6      19.731  19.855  17.941  0.00  0.00    +0.150 HD
ATOM      4  O   GLY A   5      22.734  18.893  17.544  0.00  0.00    -0.273 OA
ENDROOT
BRANCH   1   5
ATOM      5  CA  GLY A   5      21.849  21.025  17.022  0.00  0.00    +0.176 C 
BRANCH   5   8
ATOM      6  C   GLY A   4      23.606  22.365  16.026  0.00  0.00    +0.243 C 
ATOM      7  O   GLY A   4      23.261  23.419  16.514  0.00  0.00    -0.273 OA
ATOM      8  N   GLY A   5      22.982  21.213  16.205  0.00  0.00    -0.295 N 
ATOM      9  H   GLY A   5      23.356  20.382  15.704  0.00  0.00    +0.150 HD
BRANCH   6  10
ATOM     10  CA  GLY A   4      24.820  22.280  15.120  0.00  0.00    +0.176 C 
BRANCH  10  12
ATOM     11  C   VAL A   3      25.010  23.528  13.058  0.00  0.00    +0.241 C 
ATOM     12  N   GLY A   4      25.004  23.517  14.371  0.00  0.00    -0.295 N 
ATOM     13  H   GLY A   4      25.133  24.410  14.888  0.00  0.00    +0.150 HD
ATOM     14  O   VAL A   3      24.733  22.568  12.381  0.00  0.00    -0.273 OA
BRANCH  11  15
ATOM     15  CA  VAL A   3      25.457  24.845  12.448  0.00  0.00    +0.149 C 
BRANCH  15  18
ATOM     16  C   MET A   2      27.506  25.179  11.264  0.00  0.00    +0.241 C 
ATOM     17  O   MET A   2      27.868  26.028  12.085  0.00  0.00    -0.273 OA
ATOM     18  N   VAL A   3      26.341  24.589  11.309  0.00  0.00    -0.297 N 
ATOM     19  H   VAL A   3      26.046  23.946  10.546  0.00  0.00    +0.150 HD
BRANCH  16  20
ATOM     20  CA  MET A   2      28.406  24.768  10.113  0.00  0.00    +0.149 C 
BRANCH  20  22
ATOM     21  C   LYS A   1      28.614  26.410   8.334  0.00  0.00    +0.238 C 
ATOM     22  N   MET A   2      28.982  25.961   9.522  0.00  0.00    -0.297 N 
ATOM     23  H   MET A   2      29.710  26.482  10.051  0.00  0.00    +0.150 HD
ATOM     24  O   LYS A   1      27.895  25.782   7.547  0.00  0.00    -0.274 OA
BRANCH  21  25
ATOM     25  CA  LYS A   1      29.066  27.819   7.940  0.00  0.00    +0.145 C 
BRANCH  25  26
ATOM     26  N   LYS A   1      29.199  27.879   6.491  0.00  0.00    -0.238 NA
ATOM     27  H   LYS A   1      28.561  27.305   5.903  0.00  0.00    +0.142 HD
ENDBRANCH  25  26
BRANCH  25  28
ATOM     28  CB  LYS A   1      28.051  28.844   8.439  0.00  0.00    +0.026 C 
BRANCH  28  29
ATOM     29  CG  LYS A   1      27.989  29.154   9.920  0.00  0.00    -0.000 C 
BRANCH  29  30
ATOM     30  CD  LYS A   1      26.873  30.131  10.271  0.00  0.00    -0.024 C 
BRANCH  30  31
ATOM     31  CE  LYS A   1      26.690  30.315  11.755  0.00  0.00    -0.086 C 
BRANCH  31  32
ATOM     32  NZ  LYS A   1      27.739  31.227  12.286  0.00  0.00    +0.380 N 
ATOM     33  HZ1 LYS A   1      27.605  31.348  13.310  0.00  0.00    -0.089 HD
ATOM     34  HZ2 LYS A   1      28.677  30.817  12.104  0.00  0.00    -0.089 HD
ATOM     35  HZ3 LYS A   1      27.665  32.151  11.814  0.00  0.00    -0.089 HD
ENDBRANCH  31  32
ENDBRANCH  30  31
ENDBRANCH  29  30
ENDBRANCH  28  29
ENDBRANCH  25  28
ENDBRANCH  21  25
ENDBRANCH  20  22
BRANCH  20  36
ATOM     36  CB  MET A   2      29.500  23.835  10.607  0.00  0.00    +0.041 C 
BRANCH  36  37
ATOM     37  CG  MET A   2      30.325  23.244   9.497  0.00  0.00    +0.060 C 
BRANCH  37  38
ATOM     38  SD  MET A   2      29.477  21.803   8.860  0.00  0.00    -0.139 S 
ATOM     39  CE  MET A   2      30.142  20.511   9.951  0.00  0.00    +0.069 C 
ENDBRANCH  37  38
ENDBRANCH  36  37
ENDBRANCH  20  36
ENDBRANCH  16  20
ENDBRANCH  15  18
BRANCH  15  40
ATOM     40  CB  VAL A   3      24.247  25.679  12.042  0.00  0.00    +0.027 C 
ATOM     41  CG2 VAL A   3      24.767  27.000  11.536  0.00  0.00    +0.002 C 
ATOM     42  CG1 VAL A   3      23.444  24.920  11.018  0.00  0.00    +0.002 C 
ENDBRANCH  15  40
ENDBRANCH  11  15
ENDBRANCH  10  12
ENDBRANCH   6  10
ENDBRANCH   5   8
ENDBRANCH   1   5
BRANCH   2  43
ATOM     43  CA  ILE A   6      20.347  17.766  18.168  0.00  0.00    +0.149 C 
BRANCH  43  44
ATOM     44  C   ILE A   6      20.601  16.976  16.894  0.00  0.00    +0.241 C 
ATOM     45  N   GLY A   7      21.377  15.905  17.049  0.00  0.00    -0.295 N 
ATOM     46  H   GLY A   7      21.737  15.685  17.999  0.00  0.00    +0.150 HD
ATOM     47  O   ILE A   6      20.153  17.247  15.780  0.00  0.00    -0.273 OA
BRANCH  45  48
ATOM     48  CA  GLY A   7      21.740  15.036  15.953  0.00  0.00    +0.176 C 
BRANCH  48  49
ATOM     49  C   GLY A   7      23.044  15.438  15.306  0.00  0.00    +0.243 C 
ATOM     50  N   GLY A   8      23.614  16.602  15.606  0.00  0.00    -0.295 N 
ATOM     51  H   GLY A   8      23.176  17.248  16.293  0.00  0.00    +0.150 HD
ATOM     52  O   GLY A   7      23.573  14.703  14.493  0.00  0.00    -0.273 OA
BRANCH  50  53
ATOM     53  CA  GLY A   8      24.863  16.949  14.951  0.00  0.00    +0.176 C 
BRANCH  53  54
ATOM     54  C   GLY A   8      24.805  18.229  14.132  0.00  0.00    +0.243 C 
ATOM     55  O   GLY A   8      23.934  19.057  14.349  0.00  0.00    -0.273 OA
ATOM     56  N   PHE A   9      25.742  18.369  13.174  0.00  0.00    -0.297 N 
ATOM     57  H   PHE A   9      26.400  17.583  13.002  0.00  0.00    +0.150 HD
BRANCH  56  58
ATOM     58  CA  PHE A   9      25.869  19.561  12.380  0.00  0.00    +0.153 C 
BRANCH  58  59
ATOM     59  C   PHE A   9      25.484  19.395  10.927  0.00  0.00    +0.241 C 
ATOM     60  O   PHE A   9      25.623  18.308  10.403  0.00  0.00    -0.273 OA
ATOM     61  N   ILE A  10      25.029  20.514  10.378  0.00  0.00    -0.298 N 
ATOM     62  H   ILE A  10      24.833  21.336  10.984  0.00  0.00    +0.150 HD
BRANCH  61  63
ATOM     63  CA  ILE A  10      24.800  20.612   8.950  0.00  0.00    +0.137 C 
BRANCH  63  64
ATOM     64  CB  ILE A  10      23.307  20.748   8.585  0.00  0.00    +0.026 C 
ATOM     65  CG2 ILE A  10      22.510  19.503   8.974  0.00  0.00    +0.002 C 
BRANCH  64  66
ATOM     66  CG1 ILE A  10      22.632  21.994   9.144  0.00  0.00    +0.002 C 
ATOM     67  CD1 ILE A  10      21.260  22.257   8.510  0.00  0.00    +0.000 C 
ENDBRANCH  64  66
ENDBRANCH  63  64
BRANCH  63  68
ATOM     68  C   ILE A  10      25.609  21.789   8.379  0.00  0.00    +0.227 C 
ATOM     69  O   ILE A  10      25.896  22.791   9.044  0.00  0.00    -0.286 OA
ENDBRANCH  63  68
ENDBRANCH  61  63
ENDBRANCH  58  59
BRANCH  58  70
ATOM     70  CB  PHE A   9      27.324  20.014  12.395  0.00  0.00    +0.055 C 
BRANCH  70  71
ATOM     71  CG  PHE A   9      27.742  20.618  13.714  0.00  0.00    -0.020 A 
ATOM     72  CD2 PHE A   9      27.986  19.788  14.782  0.00  0.00    -0.004 A 
ATOM     73  CE2 PHE A   9      28.373  20.284  16.005  0.00  0.00    -0.000 A 
ATOM     74  CZ  PHE A   9      28.535  21.648  16.152  0.00  0.00    -0.000 A 
ATOM     75  CE1 PHE A   9      28.270  22.493  15.086  0.00  0.00    -0.000 A 
ATOM     76  CD1 PHE A   9      27.896  21.979  13.864  0.00  0.00    -0.004 A 
ENDBRANCH  70  71
ENDBRANCH  58  70
ENDBRANCH  56  58
ENDBRANCH  53  54
ENDBRANCH  50  53
ENDBRANCH  48  49
ENDBRANCH  45  48
ENDBRANCH  43  44
BRANCH  43  77
ATOM     77  CB  ILE A   6      18.947  17.498  18.778  0.00  0.00    +0.027 C 
ATOM     78  CG2 ILE A   6      18.565  16.041  18.547  0.00  0.00    +0.002 C 
BRANCH  77  79
ATOM     79  CG1 ILE A   6      18.790  17.934  20.240  0.00  0.00    +0.002 C 
ATOM     80  CD1 ILE A   6      17.490  17.783  20.932  0.00  0.00    +0.000 C 
ENDBRANCH  77  79
ENDBRANCH  43  77
ENDBRANCH   2  43
TORSDOF 35
REMARK  Name = ../refined-set-2016/3s54/3s54_pocket.pdb
REMARK  229 active torsions:
REMARK  status: ('A' for Active; 'I' for Inactive)
REMARK    1  A    between atoms: _1  and  _3
REMARK    2  A    between atoms: _3  and  _4
REMARK    3  A    between atoms: _3  and  _6
REMARK    4  A    between atoms: _6  and  _7
REMARK    5  A    between atoms: _7  and  _8
REMARK    6  A    between atoms: _8  and  _9
REMARK    7  A    between atoms: _18  and  _20
REMARK    8  A    between atoms: _20  and  _21
REMARK    9  A    between atoms: _20  and  _23
REMARK   10  A    between atoms: _23  and  _24
REMARK   11  A    between atoms: _27  and  _29
REMARK   12  A    between atoms: _29  and  _30
REMARK   13  A    between atoms: _29  and  _32
REMARK   14  A    between atoms: _32  and  _33
REMARK   15  A    between atoms: _36  and  _38
REMARK   16  A    between atoms: _38  and  _39
REMARK   17  A    between atoms: _38  and  _41
REMARK   18  A    between atoms: _41  and  _42
REMARK   19  A    between atoms: _45  and  _47
REMARK   20  A    between atoms: _47  and  _48
REMARK   21  A    between atoms: _47  and  _50
REMARK   22  A    between atoms: _50  and  _51
REMARK   23  A    between atoms: _54  and  _56
REMARK   24  A    between atoms: _56  and  _57
REMARK   25  A    between atoms: _59  and  _61
REMARK   26  A    between atoms: _61  and  _62
REMARK   27  A    between atoms: _65  and  _67
REMARK   28  A    between atoms: _67  and  _68
REMARK   29  A    between atoms: _67  and  _70
REMARK   30  A    between atoms: _70  and  _71
REMARK   31  A    between atoms: _74  and  _76
REMARK   32  A    between atoms: _76  and  _77
REMARK   33  A    between atoms: _76  and  _79
REMARK   34  A    between atoms: _79  and  _80
REMARK   35  A    between atoms: _80  and  _82
REMARK   36  A    between atoms: _83  and  _85
REMARK   37  A    between atoms: _85  and  _86
REMARK   38  A    between atoms: _85  and  _88
REMARK   39  A    between atoms: _88  and  _89
REMARK   40  A    between atoms: _92  and  _94
REMARK   41  A    between atoms: _94  and  _95
REMARK   42  A    between atoms: _94  and  _97
REMARK   43  A    between atoms: _97  and  _98
REMARK   44  A    between atoms: _101  and  _103
REMARK   45  A    between atoms: _103  and  _104
REMARK   46  A    between atoms: _103  and  _106
REMARK   47  A    between atoms: _106  and  _107
REMARK   48  A    between atoms: _107  and  _108
REMARK   49  A    between atoms: _108  and  _109
REMARK   50  A    between atoms: _109  and  _110
REMARK   51  A    between atoms: _114  and  _116
REMARK   52  A    between atoms: _116  and  _117
REMARK   53  A    between atoms: _116  and  _119
REMARK   54  A    between atoms: _119  and  _120
REMARK   55  A    between atoms: _120  and  _121
REMARK   56  A    between atoms: _123  and  _125
REMARK   57  A    between atoms: _125  and  _126
REMARK   58  A    between atoms: _125  and  _128
REMARK   59  A    between atoms: _131  and  _133
REMARK   60  A    between atoms: _133  and  _134
REMARK   61  A    between atoms: _136  and  _138
REMARK   62  A    between atoms: _138  and  _139
REMARK   63  A    between atoms: _141  and  _143
REMARK   64  A    between atoms: _143  and  _144
REMARK   65  A    between atoms: _143  and  _146
REMARK   66  A    between atoms: _146  and  _147
REMARK   67  A    between atoms: _150  and  _152
REMARK   68  A    between atoms: _152  and  _153
REMARK   69  A    between atoms: _155  and  _157
REMARK   70  A    between atoms: _157  and  _158
REMARK   71  A    between atoms: _160  and  _162
REMARK   72  A    between atoms: _162  and  _163
REMARK   73  A    between atoms: _162  and  _165
REMARK   74  A    between atoms: _165  and  _166
REMARK   75  A    between atoms: _172  and  _174
REMARK   76  A    between atoms: _174  and  _175
REMARK   77  A    between atoms: _174  and  _177
REMARK   78  A    between atoms: _177  and  _178
REMARK   79  A    between atoms: _181  and  _183
REMARK   80  A    between atoms: _183  and  _184
REMARK   81  A    between atoms: _183  and  _186
REMARK   82  A    between atoms: _189  and  _191
REMARK   83  A    between atoms: _191  and  _192
REMARK   84  A    between atoms: _191  and  _194
REMARK   85  A    between atoms: _194  and  _195
REMARK   86  A    between atoms: _198  and  _200
REMARK   87  A    between atoms: _200  and  _201
REMARK   88  A    between atoms: _200  and  _203
REMARK   89  A    between atoms: _203  and  _204
REMARK   90  A    between atoms: _208  and  _209
REMARK   91  A    between atoms: _214  and  _216
REMARK   92  A    between atoms: _216  and  _217
REMARK   93  A    between atoms: _216  and  _219
REMARK   94  A    between atoms: _219  and  _220
REMARK   95  A    between atoms: _223  and  _225
REMARK   96  A    between atoms: _225  and  _226
REMARK   97  A    between atoms: _225  and  _228
REMARK   98  A    between atoms: _228  and  _229
REMARK   99  A    between atoms: _234  and  _236
REMARK  100  A    between atoms: _236  and  _237
REMARK  101  A    between atoms: _236  and  _239
REMARK  102  A    between atoms: _239  and  _240
REMARK  103  A    between atoms: _243  and  _245
REMARK  104  A    between atoms: _245  and  _246
REMARK  105  A    between atoms: _245  and  _248
REMARK  106  A    between atoms: _248  and  _249
REMARK  107  A    between atoms: _252  and  _254
REMARK  108  A    between atoms: _254  and  _255
REMARK  109  A    between atoms: _257  and  _259
REMARK  110  A    between atoms: _259  and  _260
REMARK  111  A    between atoms: _259  and  _262
REMARK  112  A    between atoms: _262  and  _263
REMARK  113  A    between atoms: _263  and  _264
REMARK  114  A    between atoms: _264  and  _265
REMARK  115  A    between atoms: _274  and  _276
REMARK  116  A    between atoms: _276  and  _277
REMARK  117  A    between atoms: _276  and  _279
REMARK  118  A    between atoms: _279  and  _280
REMARK  119  A    between atoms: _285  and  _287
REMARK  120  A    between atoms: _287  and  _288
REMARK  121  A    between atoms: _287  and  _290
REMARK  122  A    between atoms: _290  and  _291
REMARK  123  A    between atoms: _291  and  _292
REMARK  124  A    between atoms: _292  and  _293
REMARK  125  A    between atoms: _302  and  _304
REMARK  126  A    between atoms: _304  and  _305
REMARK  127  A    between atoms: _304  and  _307
REMARK  128  A    between atoms: _307  and  _308
REMARK  129  A    between atoms: _311  and  _313
REMARK  130  A    between atoms: _313  and  _314
REMARK  131  A    between atoms: _313  and  _316
REMARK  132  A    between atoms: _316  and  _317
REMARK  133  A    between atoms: _320  and  _322
REMARK  134  A    between atoms: _322  and  _323
REMARK  135  A    between atoms: _322  and  _325
REMARK  136  A    between atoms: _325  and  _326
REMARK  137  A    between atoms: _329  and  _331
REMARK  138  A    between atoms: _331  and  _332
REMARK  139  A    between atoms: _331  and  _334
REMARK  140  A    between atoms: _334  and  _335
REMARK  141  A    between atoms: _338  and  _340
REMARK  142  A    between atoms: _340  and  _341
REMARK  143  A    between atoms: _343  and  _345
REMARK  144  A    between atoms: _345  and  _346
REMARK  145  A    between atoms: _349  and  _351
REMARK  146  A    between atoms: _351  and  _352
REMARK  147  A    between atoms: _351  and  _354
REMARK  148  A    between atoms: _354  and  _355
REMARK  149  A    between atoms: _358  and  _360
REMARK  150  A    between atoms: _360  and  _361
REMARK  151  A    between atoms: _360  and  _363
REMARK  152  A    between atoms: _363  and  _364
REMARK  153  A    between atoms: _364  and  _366
REMARK  154  A    between atoms: _367  and  _369
REMARK  155  A    between atoms: _369  and  _370
REMARK  156  A    between atoms: _369  and  _372
REMARK  157  A    between atoms: _372  and  _373
REMARK  158  A    between atoms: _376  and  _378
REMARK  159  A    between atoms: _378  and  _379
REMARK  160  A    between atoms: _378  and  _381
REMARK  161  A    between atoms: _381  and  _382
REMARK  162  A    between atoms: _385  and  _387
REMARK  163  A    between atoms: _387  and  _388
REMARK  164  A    between atoms: _387  and  _390
REMARK  165  A    between atoms: _390  and  _391
REMARK  166  A    between atoms: _391  and  _392
REMARK  167  A    between atoms: _392  and  _393
REMARK  168  A    between atoms: _393  and  _394
REMARK  169  A    between atoms: _398  and  _400
REMARK  170  A    between atoms: _400  and  _401
REMARK  171  A    between atoms: _400  and  _403
REMARK  172  A    between atoms: _403  and  _404
REMARK  173  A    between atoms: _404  and  _405
REMARK  174  A    between atoms: _407  and  _409
REMARK  175  A    between atoms: _409  and  _410
REMARK  176  A    between atoms: _409  and  _412
REMARK  177  A    between atoms: _415  and  _417
REMARK  178  A    between atoms: _417  and  _418
REMARK  179  A    between atoms: _420  and  _422
REMARK  180  A    between atoms: _422  and  _423
REMARK  181  A    between atoms: _425  and  _427
REMARK  182  A    between atoms: _427  and  _428
REMARK  183  A    between atoms: _427  and  _430
REMARK  184  A    between atoms: _430  and  _431
REMARK  185  A    between atoms: _434  and  _436
REMARK  186  A    between atoms: _436  and  _437
REMARK  187  A    between atoms: _439  and  _441
REMARK  188  A    between atoms: _441  and  _442
REMARK  189  A    between atoms: _444  and  _446
REMARK  190  A    between atoms: _446  and  _447
REMARK  191  A    between atoms: _446  and  _449
REMARK  192  A    between atoms: _449  and  _450
REMARK  193  A    between atoms: _456  and  _458
REMARK  194  A    between atoms: _458  and  _459
REMARK  195  A    between atoms: _458  and  _461
REMARK  196  A    between atoms: _461  and  _462
REMARK  197  A    between atoms: _465  and  _467
REMARK  198  A    between atoms: _467  and  _468
REMARK  199  A    between atoms: _467  and  _470
REMARK  200  A    between atoms: _470  and  _471
REMARK  201  A    between atoms: _474  and  _476
REMARK  202  A    between atoms: _476  and  _477
REMARK  203  A    between atoms: _476  and  _479
REMARK  204  A    between atoms: _479  and  _480
REMARK  205  A    between atoms: _484  and  _485
REMARK  206  A    between atoms: _490  and  _492
REMARK  207  A    between atoms: _492  and  _493
REMARK  208  A    between atoms: _492  and  _495
REMARK  209  A    between atoms: _495  and  _496
REMARK  210  A    between atoms: _499  and  _501
REMARK  211  A    between atoms: _501  and  _502
REMARK  212  A    between atoms: _501  and  _504
REMARK  213  A    between atoms: _504  and  _505
REMARK  214  A    between atoms: _510  and  _512
REMARK  215  A    between atoms: _512  and  _513
REMARK  216  A    between atoms: _512  and  _515
REMARK  217  A    between atoms: _515  and  _516
REMARK  218  A    between atoms: _519  and  _521
REMARK  219  A    between atoms: _521  and  _522
REMARK  220  A    between atoms: _524  and  _526
REMARK  221  A    between atoms: _526  and  _527
REMARK  222  A    between atoms: _526  and  _529
REMARK  223  A    between atoms: _529  and  _530
REMARK  224  A    between atoms: _530  and  _531
REMARK  225  A    between atoms: _531  and  _532
REMARK  226  A    between atoms: _541  and  _543
REMARK  227  A    between atoms: _543  and  _544
REMARK  228  A    between atoms: _543  and  _546
REMARK  229  A    between atoms: _546  and  _547
REMARK                            x       y       z     vdW  Elec       q    Type
REMARK                         _______ _______ _______ _____ _____    ______ ____
ROOT
ATOM      1  CA  VAL A   1      24.881  25.876   5.286  0.00  0.00    +0.133 C 
ENDROOT
BRANCH   1   2
ATOM      2  CB  VAL A   1      23.990  26.517   6.366  0.00  0.00    +0.023 C 
ATOM      3  CG2 VAL A   1      24.826  27.363   7.347  0.00  0.00    +0.002 C 
ATOM      4  CG1 VAL A   1      23.237  25.467   7.136  0.00  0.00    +0.002 C 
ENDBRANCH   1   2
BRANCH   1   5
ATOM      5  N   VAL A   1      25.792  24.888   5.857  0.00  0.00    -0.239 NA
ATOM      6  H   VAL A   1      26.606  25.228   6.408  0.00  0.00    +0.142 HD
ENDBRANCH   1   5
BRANCH   1   7
ATOM      7  C   VAL A   1      25.651  27.004   4.584  0.00  0.00    +0.224 C 
ATOM      8  O   VAL A   1      26.866  27.105   4.725  0.00  0.00    -0.287 OA
ENDBRANCH   1   7
TORSDOF 3
REMARK  Name = ../refined-set-2016/3s54/3s54_pocket.pdb
REMARK  229 active torsions:
REMARK  status: ('A' for Active; 'I' for Inactive)
REMARK    1  A    between atoms: _1  and  _3
REMARK    2  A    between atoms: _3  and  _4
REMARK    3  A    between atoms: _3  and  _6
REMARK    4  A    between atoms: _6  and  _7
REMARK    5  A    between atoms: _7  and  _8
REMARK    6  A    between atoms: _8  and  _9
REMARK    7  A    between atoms: _18  and  _20
REMARK    8  A    between atoms: _20  and  _21
REMARK    9  A    between atoms: _20  and  _23
REMARK   10  A    between atoms: _23  and  _24
REMARK   11  A    between atoms: _27  and  _29
REMARK   12  A    between atoms: _29  and  _30
REMARK   13  A    between atoms: _29  and  _32
REMARK   14  A    between atoms: _32  and  _33
REMARK   15  A    between atoms: _36  and  _38
REMARK   16  A    between atoms: _38  and  _39
REMARK   17  A    between atoms: _38  and  _41
REMARK   18  A    between atoms: _41  and  _42
REMARK   19  A    between atoms: _45  and  _47
REMARK   20  A    between atoms: _47  and  _48
REMARK   21  A    between atoms: _47  and  _50
REMARK   22  A    between atoms: _50  and  _51
REMARK   23  A    between atoms: _54  and  _56
REMARK   24  A    between atoms: _56  and  _57
REMARK   25  A    between atoms: _59  and  _61
REMARK   26  A    between atoms: _61  and  _62
REMARK   27  A    between atoms: _65  and  _67
REMARK   28  A    between atoms: _67  and  _68
REMARK   29  A    between atoms: _67  and  _70
REMARK   30  A    between atoms: _70  and  _71
REMARK   31  A    between atoms: _74  and  _76
REMARK   32  A    between atoms: _76  and  _77
REMARK   33  A    between atoms: _76  and  _79
REMARK   34  A    between atoms: _79  and  _80
REMARK   35  A    between atoms: _80  and  _82
REMARK   36  A    between atoms: _83  and  _85
REMARK   37  A    between atoms: _85  and  _86
REMARK   38  A    between atoms: _85  and  _88
REMARK   39  A    between atoms: _88  and  _89
REMARK   40  A    between atoms: _92  and  _94
REMARK   41  A    between atoms: _94  and  _95
REMARK   42  A    between atoms: _94  and  _97
REMARK   43  A    between atoms: _97  and  _98
REMARK   44  A    between atoms: _101  and  _103
REMARK   45  A    between atoms: _103  and  _104
REMARK   46  A    between atoms: _103  and  _106
REMARK   47  A    between atoms: _106  and  _107
REMARK   48  A    between atoms: _107  and  _108
REMARK   49  A    between atoms: _108  and  _109
REMARK   50  A    between atoms: _109  and  _110
REMARK   51  A    between atoms: _114  and  _116
REMARK   52  A    between atoms: _116  and  _117
REMARK   53  A    between atoms: _116  and  _119
REMARK   54  A    between atoms: _119  and  _120
REMARK   55  A    between atoms: _120  and  _121
REMARK   56  A    between atoms: _123  and  _125
REMARK   57  A    between atoms: _125  and  _126
REMARK   58  A    between atoms: _125  and  _128
REMARK   59  A    between atoms: _131  and  _133
REMARK   60  A    between atoms: _133  and  _134
REMARK   61  A    between atoms: _136  and  _138
REMARK   62  A    between atoms: _138  and  _139
REMARK   63  A    between atoms: _141  and  _143
REMARK   64  A    between atoms: _143  and  _144
REMARK   65  A    between atoms: _143  and  _146
REMARK   66  A    between atoms: _146  and  _147
REMARK   67  A    between atoms: _150  and  _152
REMARK   68  A    between atoms: _152  and  _153
REMARK   69  A    between atoms: _155  and  _157
REMARK   70  A    between atoms: _157  and  _158
REMARK   71  A    between atoms: _160  and  _162
REMARK   72  A    between atoms: _162  and  _163
REMARK   73  A    between atoms: _162  and  _165
REMARK   74  A    between atoms: _165  and  _166
REMARK   75  A    between atoms: _172  and  _174
REMARK   76  A    between atoms: _174  and  _175
REMARK   77  A    between atoms: _174  and  _177
REMARK   78  A    between atoms: _177  and  _178
REMARK   79  A    between atoms: _181  and  _183
REMARK   80  A    between atoms: _183  and  _184
REMARK   81  A    between atoms: _183  and  _186
REMARK   82  A    between atoms: _189  and  _191
REMARK   83  A    between atoms: _191  and  _192
REMARK   84  A    between atoms: _191  and  _194
REMARK   85  A    between atoms: _194  and  _195
REMARK   86  A    between atoms: _198  and  _200
REMARK   87  A    between atoms: _200  and  _201
REMARK   88  A    between atoms: _200  and  _203
REMARK   89  A    between atoms: _203  and  _204
REMARK   90  A    between atoms: _208  and  _209
REMARK   91  A    between atoms: _214  and  _216
REMARK   92  A    between atoms: _216  and  _217
REMARK   93  A    between atoms: _216  and  _219
REMARK   94  A    between atoms: _219  and  _220
REMARK   95  A    between atoms: _223  and  _225
REMARK   96  A    between atoms: _225  and  _226
REMARK   97  A    between atoms: _225  and  _228
REMARK   98  A    between atoms: _228  and  _229
REMARK   99  A    between atoms: _234  and  _236
REMARK  100  A    between atoms: _236  and  _237
REMARK  101  A    between atoms: _236  and  _239
REMARK  102  A    between atoms: _239  and  _240
REMARK  103  A    between atoms: _243  and  _245
REMARK  104  A    between atoms: _245  and  _246
REMARK  105  A    between atoms: _245  and  _248
REMARK  106  A    between atoms: _248  and  _249
REMARK  107  A    between atoms: _252  and  _254
REMARK  108  A    between atoms: _254  and  _255
REMARK  109  A    between atoms: _257  and  _259
REMARK  110  A    between atoms: _259  and  _260
REMARK  111  A    between atoms: _259  and  _262
REMARK  112  A    between atoms: _262  and  _263
REMARK  113  A    between atoms: _263  and  _264
REMARK  114  A    between atoms: _264  and  _265
REMARK  115  A    between atoms: _274  and  _276
REMARK  116  A    between atoms: _276  and  _277
REMARK  117  A    between atoms: _276  and  _279
REMARK  118  A    between atoms: _279  and  _280
REMARK  119  A    between atoms: _285  and  _287
REMARK  120  A    between atoms: _287  and  _288
REMARK  121  A    between atoms: _287  and  _290
REMARK  122  A    between atoms: _290  and  _291
REMARK  123  A    between atoms: _291  and  _292
REMARK  124  A    between atoms: _292  and  _293
REMARK  125  A    between atoms: _302  and  _304
REMARK  126  A    between atoms: _304  and  _305
REMARK  127  A    between atoms: _304  and  _307
REMARK  128  A    between atoms: _307  and  _308
REMARK  129  A    between atoms: _311  and  _313
REMARK  130  A    between atoms: _313  and  _314
REMARK  131  A    between atoms: _313  and  _316
REMARK  132  A    between atoms: _316  and  _317
REMARK  133  A    between atoms: _320  and  _322
REMARK  134  A    between atoms: _322  and  _323
REMARK  135  A    between atoms: _322  and  _325
REMARK  136  A    between atoms: _325  and  _326
REMARK  137  A    between atoms: _329  and  _331
REMARK  138  A    between atoms: _331  and  _332
REMARK  139  A    between atoms: _331  and  _334
REMARK  140  A    between atoms: _334  and  _335
REMARK  141  A    between atoms: _338  and  _340
REMARK  142  A    between atoms: _340  and  _341
REMARK  143  A    between atoms: _343  and  _345
REMARK  144  A    between atoms: _345  and  _346
REMARK  145  A    between atoms: _349  and  _351
REMARK  146  A    between atoms: _351  and  _352
REMARK  147  A    between atoms: _351  and  _354
REMARK  148  A    between atoms: _354  and  _355
REMARK  149  A    between atoms: _358  and  _360
REMARK  150  A    between atoms: _360  and  _361
REMARK  151  A    between atoms: _360  and  _363
REMARK  152  A    between atoms: _363  and  _364
REMARK  153  A    between atoms: _364  and  _366
REMARK  154  A    between atoms: _367  and  _369
REMARK  155  A    between atoms: _369  and  _370
REMARK  156  A    between atoms: _369  and  _372
REMARK  157  A    between atoms: _372  and  _373
REMARK  158  A    between atoms: _376  and  _378
REMARK  159  A    between atoms: _378  and  _379
REMARK  160  A    between atoms: _378  and  _381
REMARK  161  A    between atoms: _381  and  _382
REMARK  162  A    between atoms: _385  and  _387
REMARK  163  A    between atoms: _387  and  _388
REMARK  164  A    between atoms: _387  and  _390
REMARK  165  A    between atoms: _390  and  _391
REMARK  166  A    between atoms: _391  and  _392
REMARK  167  A    between atoms: _392  and  _393
REMARK  168  A    between atoms: _393  and  _394
REMARK  169  A    between atoms: _398  and  _400
REMARK  170  A    between atoms: _400  and  _401
REMARK  171  A    between atoms: _400  and  _403
REMARK  172  A    between atoms: _403  and  _404
REMARK  173  A    between atoms: _404  and  _405
REMARK  174  A    between atoms: _407  and  _409
REMARK  175  A    between atoms: _409  and  _410
REMARK  176  A    between atoms: _409  and  _412
REMARK  177  A    between atoms: _415  and  _417
REMARK  178  A    between atoms: _417  and  _418
REMARK  179  A    between atoms: _420  and  _422
REMARK  180  A    between atoms: _422  and  _423
REMARK  181  A    between atoms: _425  and  _427
REMARK  182  A    between atoms: _427  and  _428
REMARK  183  A    between atoms: _427  and  _430
REMARK  184  A    between atoms: _430  and  _431
REMARK  185  A    between atoms: _434  and  _436
REMARK  186  A    between atoms: _436  and  _437
REMARK  187  A    between atoms: _439  and  _441
REMARK  188  A    between atoms: _441  and  _442
REMARK  189  A    between atoms: _444  and  _446
REMARK  190  A    between atoms: _446  and  _447
REMARK  191  A    between atoms: _446  and  _449
REMARK  192  A    between atoms: _449  and  _450
REMARK  193  A    between atoms: _456  and  _458
REMARK  194  A    between atoms: _458  and  _459
REMARK  195  A    between atoms: _458  and  _461
REMARK  196  A    between atoms: _461  and  _462
REMARK  197  A    between atoms: _465  and  _467
REMARK  198  A    between atoms: _467  and  _468
REMARK  199  A    between atoms: _467  and  _470
REMARK  200  A    between atoms: _470  and  _471
REMARK  201  A    between atoms: _474  and  _476
REMARK  202  A    between atoms: _476  and  _477
REMARK  203  A    between atoms: _476  and  _479
REMARK  204  A    between atoms: _479  and  _480
REMARK  205  A    between atoms: _484  and  _485
REMARK  206  A    between atoms: _490  and  _492
REMARK  207  A    between atoms: _492  and  _493
REMARK  208  A    between atoms: _492  and  _495
REMARK  209  A    between atoms: _495  and  _496
REMARK  210  A    between atoms: _499  and  _501
REMARK  211  A    between atoms: _501  and  _502
REMARK  212  A    between atoms: _501  and  _504
REMARK  213  A    between atoms: _504  and  _505
REMARK  214  A    between atoms: _510  and  _512
REMARK  215  A    between atoms: _512  and  _513
REMARK  216  A    between atoms: _512  and  _515
REMARK  217  A    between atoms: _515  and  _516
REMARK  218  A    between atoms: _519  and  _521
REMARK  219  A    between atoms: _521  and  _522
REMARK  220  A    between atoms: _524  and  _526
REMARK  221  A    between atoms: _526  and  _527
REMARK  222  A    between atoms: _526  and  _529
REMARK  223  A    between atoms: _529  and  _530
REMARK  224  A    between atoms: _530  and  _531
REMARK  225  A    between atoms: _531  and  _532
REMARK  226  A    between atoms: _541  and  _543
REMARK  227  A    between atoms: _543  and  _544
REMARK  228  A    between atoms: _543  and  _546
REMARK  229  A    between atoms: _546  and  _547
REMARK                            x       y       z     vdW  Elec       q    Type
REMARK                         _______ _______ _______ _____ _____    ______ ____
ROOT
ATOM      1  CA  LEU A   1      21.365  30.596   6.720  0.00  0.00    +0.133 C 
ENDROOT
BRANCH   1   2
ATOM      2  N   LEU A   1      20.678  31.793   7.114  0.00  0.00    -0.239 NA
ATOM      3  H   LEU A   1      20.080  31.773   7.965  0.00  0.00    +0.142 HD
ENDBRANCH   1   2
BRANCH   1   4
ATOM      4  C   LEU A   1      20.474  29.760   5.819  0.00  0.00    +0.224 C 
ATOM      5  O   LEU A   1      19.270  29.670   6.042  0.00  0.00    -0.287 OA
ENDBRANCH   1   4
BRANCH   1   6
ATOM      6  CB  LEU A   1      21.746  29.830   7.987  0.00  0.00    +0.025 C 
BRANCH   6   7
ATOM      7  CG  LEU A   1      22.492  30.636   9.051  0.00  0.00    +0.002 C 
ATOM      8  CD2 LEU A   1      22.842  29.765  10.245  0.00  0.00    +0.000 C 
ATOM      9  CD1 LEU A   1      23.766  31.286   8.509  0.00  0.00    +0.000 C 
ENDBRANCH   6   7
ENDBRANCH   1   6
TORSDOF 4
REMARK  Name = ../refined-set-2016/3s54/3s54_pocket.pdb
REMARK  229 active torsions:
REMARK  status: ('A' for Active; 'I' for Inactive)
REMARK    1  A    between atoms: _1  and  _3
REMARK    2  A    between atoms: _3  and  _4
REMARK    3  A    between atoms: _3  and  _6
REMARK    4  A    between atoms: _6  and  _7
REMARK    5  A    between atoms: _7  and  _8
REMARK    6  A    between atoms: _8  and  _9
REMARK    7  A    between atoms: _18  and  _20
REMARK    8  A    between atoms: _20  and  _21
REMARK    9  A    between atoms: _20  and  _23
REMARK   10  A    between atoms: _23  and  _24
REMARK   11  A    between atoms: _27  and  _29
REMARK   12  A    between atoms: _29  and  _30
REMARK   13  A    between atoms: _29  and  _32
REMARK   14  A    between atoms: _32  and  _33
REMARK   15  A    between atoms: _36  and  _38
REMARK   16  A    between atoms: _38  and  _39
REMARK   17  A    between atoms: _38  and  _41
REMARK   18  A    between atoms: _41  and  _42
REMARK   19  A    between atoms: _45  and  _47
REMARK   20  A    between atoms: _47  and  _48
REMARK   21  A    between atoms: _47  and  _50
REMARK   22  A    between atoms: _50  and  _51
REMARK   23  A    between atoms: _54  and  _56
REMARK   24  A    between atoms: _56  and  _57
REMARK   25  A    between atoms: _59  and  _61
REMARK   26  A    between atoms: _61  and  _62
REMARK   27  A    between atoms: _65  and  _67
REMARK   28  A    between atoms: _67  and  _68
REMARK   29  A    between atoms: _67  and  _70
REMARK   30  A    between atoms: _70  and  _71
REMARK   31  A    between atoms: _74  and  _76
REMARK   32  A    between atoms: _76  and  _77
REMARK   33  A    between atoms: _76  and  _79
REMARK   34  A    between atoms: _79  and  _80
REMARK   35  A    between atoms: _80  and  _82
REMARK   36  A    between atoms: _83  and  _85
REMARK   37  A    between atoms: _85  and  _86
REMARK   38  A    between atoms: _85  and  _88
REMARK   39  A    between atoms: _88  and  _89
REMARK   40  A    between atoms: _92  and  _94
REMARK   41  A    between atoms: _94  and  _95
REMARK   42  A    between atoms: _94  and  _97
REMARK   43  A    between atoms: _97  and  _98
REMARK   44  A    between atoms: _101  and  _103
REMARK   45  A    between atoms: _103  and  _104
REMARK   46  A    between atoms: _103  and  _106
REMARK   47  A    between atoms: _106  and  _107
REMARK   48  A    between atoms: _107  and  _108
REMARK   49  A    between atoms: _108  and  _109
REMARK   50  A    between atoms: _109  and  _110
REMARK   51  A    between atoms: _114  and  _116
REMARK   52  A    between atoms: _116  and  _117
REMARK   53  A    between atoms: _116  and  _119
REMARK   54  A    between atoms: _119  and  _120
REMARK   55  A    between atoms: _120  and  _121
REMARK   56  A    between atoms: _123  and  _125
REMARK   57  A    between atoms: _125  and  _126
REMARK   58  A    between atoms: _125  and  _128
REMARK   59  A    between atoms: _131  and  _133
REMARK   60  A    between atoms: _133  and  _134
REMARK   61  A    between atoms: _136  and  _138
REMARK   62  A    between atoms: _138  and  _139
REMARK   63  A    between atoms: _141  and  _143
REMARK   64  A    between atoms: _143  and  _144
REMARK   65  A    between atoms: _143  and  _146
REMARK   66  A    between atoms: _146  and  _147
REMARK   67  A    between atoms: _150  and  _152
REMARK   68  A    between atoms: _152  and  _153
REMARK   69  A    between atoms: _155  and  _157
REMARK   70  A    between atoms: _157  and  _158
REMARK   71  A    between atoms: _160  and  _162
REMARK   72  A    between atoms: _162  and  _163
REMARK   73  A    between atoms: _162  and  _165
REMARK   74  A    between atoms: _165  and  _166
REMARK   75  A    between atoms: _172  and  _174
REMARK   76  A    between atoms: _174  and  _175
REMARK   77  A    between atoms: _174  and  _177
REMARK   78  A    between atoms: _177  and  _178
REMARK   79  A    between atoms: _181  and  _183
REMARK   80  A    between atoms: _183  and  _184
REMARK   81  A    between atoms: _183  and  _186
REMARK   82  A    between atoms: _189  and  _191
REMARK   83  A    between atoms: _191  and  _192
REMARK   84  A    between atoms: _191  and  _194
REMARK   85  A    between atoms: _194  and  _195
REMARK   86  A    between atoms: _198  and  _200
REMARK   87  A    between atoms: _200  and  _201
REMARK   88  A    between atoms: _200  and  _203
REMARK   89  A    between atoms: _203  and  _204
REMARK   90  A    between atoms: _208  and  _209
REMARK   91  A    between atoms: _214  and  _216
REMARK   92  A    between atoms: _216  and  _217
REMARK   93  A    between atoms: _216  and  _219
REMARK   94  A    between atoms: _219  and  _220
REMARK   95  A    between atoms: _223  and  _225
REMARK   96  A    between atoms: _225  and  _226
REMARK   97  A    between atoms: _225  and  _228
REMARK   98  A    between atoms: _228  and  _229
REMARK   99  A    between atoms: _234  and  _236
REMARK  100  A    between atoms: _236  and  _237
REMARK  101  A    between atoms: _236  and  _239
REMARK  102  A    between atoms: _239  and  _240
REMARK  103  A    between atoms: _243  and  _245
REMARK  104  A    between atoms: _245  and  _246
REMARK  105  A    between atoms: _245  and  _248
REMARK  106  A    between atoms: _248  and  _249
REMARK  107  A    between atoms: _252  and  _254
REMARK  108  A    between atoms: _254  and  _255
REMARK  109  A    between atoms: _257  and  _259
REMARK  110  A    between atoms: _259  and  _260
REMARK  111  A    between atoms: _259  and  _262
REMARK  112  A    between atoms: _262  and  _263
REMARK  113  A    between atoms: _263  and  _264
REMARK  114  A    between atoms: _264  and  _265
REMARK  115  A    between atoms: _274  and  _276
REMARK  116  A    between atoms: _276  and  _277
REMARK  117  A    between atoms: _276  and  _279
REMARK  118  A    between atoms: _279  and  _280
REMARK  119  A    between atoms: _285  and  _287
REMARK  120  A    between atoms: _287  and  _288
REMARK  121  A    between atoms: _287  and  _290
REMARK  122  A    between atoms: _290  and  _291
REMARK  123  A    between atoms: _291  and  _292
REMARK  124  A    between atoms: _292  and  _293
REMARK  125  A    between atoms: _302  and  _304
REMARK  126  A    between atoms: _304  and  _305
REMARK  127  A    between atoms: _304  and  _307
REMARK  128  A    between atoms: _307  and  _308
REMARK  129  A    between atoms: _311  and  _313
REMARK  130  A    between atoms: _313  and  _314
REMARK  131  A    between atoms: _313  and  _316
REMARK  132  A    between atoms: _316  and  _317
REMARK  133  A    between atoms: _320  and  _322
REMARK  134  A    between atoms: _322  and  _323
REMARK  135  A    between atoms: _322  and  _325
REMARK  136  A    between atoms: _325  and  _326
REMARK  137  A    between atoms: _329  and  _331
REMARK  138  A    between atoms: _331  and  _332
REMARK  139  A    between atoms: _331  and  _334
REMARK  140  A    between atoms: _334  and  _335
REMARK  141  A    between atoms: _338  and  _340
REMARK  142  A    between atoms: _340  and  _341
REMARK  143  A    between atoms: _343  and  _345
REMARK  144  A    between atoms: _345  and  _346
REMARK  145  A    between atoms: _349  and  _351
REMARK  146  A    between atoms: _351  and  _352
REMARK  147  A    between atoms: _351  and  _354
REMARK  148  A    between atoms: _354  and  _355
REMARK  149  A    between atoms: _358  and  _360
REMARK  150  A    between atoms: _360  and  _361
REMARK  151  A    between atoms: _360  and  _363
REMARK  152  A    between atoms: _363  and  _364
REMARK  153  A    between atoms: _364  and  _366
REMARK  154  A    between atoms: _367  and  _369
REMARK  155  A    between atoms: _369  and  _370
REMARK  156  A    between atoms: _369  and  _372
REMARK  157  A    between atoms: _372  and  _373
REMARK  158  A    between atoms: _376  and  _378
REMARK  159  A    between atoms: _378  and  _379
REMARK  160  A    between atoms: _378  and  _381
REMARK  161  A    between atoms: _381  and  _382
REMARK  162  A    between atoms: _385  and  _387
REMARK  163  A    between atoms: _387  and  _388
REMARK  164  A    between atoms: _387  and  _390
REMARK  165  A    between atoms: _390  and  _391
REMARK  166  A    between atoms: _391  and  _392
REMARK  167  A    between atoms: _392  and  _393
REMARK  168  A    between atoms: _393  and  _394
REMARK  169  A    between atoms: _398  and  _400
REMARK  170  A    between atoms: _400  and  _401
REMARK  171  A    between atoms: _400  and  _403
REMARK  172  A    between atoms: _403  and  _404
REMARK  173  A    between atoms: _404  and  _405
REMARK  174  A    between atoms: _407  and  _409
REMARK  175  A    between atoms: _409  and  _410
REMARK  176  A    between atoms: _409  and  _412
REMARK  177  A    between atoms: _415  and  _417
REMARK  178  A    between atoms: _417  and  _418
REMARK  179  A    between atoms: _420  and  _422
REMARK  180  A    between atoms: _422  and  _423
REMARK  181  A    between atoms: _425  and  _427
REMARK  182  A    between atoms: _427  and  _428
REMARK  183  A    between atoms: _427  and  _430
REMARK  184  A    between atoms: _430  and  _431
REMARK  185  A    between atoms: _434  and  _436
REMARK  186  A    between atoms: _436  and  _437
REMARK  187  A    between atoms: _439  and  _441
REMARK  188  A    between atoms: _441  and  _442
REMARK  189  A    between atoms: _444  and  _446
REMARK  190  A    between atoms: _446  and  _447
REMARK  191  A    between atoms: _446  and  _449
REMARK  192  A    between atoms: _449  and  _450
REMARK  193  A    between atoms: _456  and  _458
REMARK  194  A    between atoms: _458  and  _459
REMARK  195  A    between atoms: _458  and  _461
REMARK  196  A    between atoms: _461  and  _462
REMARK  197  A    between atoms: _465  and  _467
REMARK  198  A    between atoms: _467  and  _468
REMARK  199  A    between atoms: _467  and  _470
REMARK  200  A    between atoms: _470  and  _471
REMARK  201  A    between atoms: _474  and  _476
REMARK  202  A    between atoms: _476  and  _477
REMARK  203  A    between atoms: _476  and  _479
REMARK  204  A    between atoms: _479  and  _480
REMARK  205  A    between atoms: _484  and  _485
REMARK  206  A    between atoms: _490  and  _492
REMARK  207  A    between atoms: _492  and  _493
REMARK  208  A    between atoms: _492  and  _495
REMARK  209  A    between atoms: _495  and  _496
REMARK  210  A    between atoms: _499  and  _501
REMARK  211  A    between atoms: _501  and  _502
REMARK  212  A    between atoms: _501  and  _504
REMARK  213  A    between atoms: _504  and  _505
REMARK  214  A    between atoms: _510  and  _512
REMARK  215  A    between atoms: _512  and  _513
REMARK  216  A    between atoms: _512  and  _515
REMARK  217  A    between atoms: _515  and  _516
REMARK  218  A    between atoms: _519  and  _521
REMARK  219  A    between atoms: _521  and  _522
REMARK  220  A    between atoms: _524  and  _526
REMARK  221  A    between atoms: _526  and  _527
REMARK  222  A    between atoms: _526  and  _529
REMARK  223  A    between atoms: _529  and  _530
REMARK  224  A    between atoms: _530  and  _531
REMARK  225  A    between atoms: _531  and  _532
REMARK  226  A    between atoms: _541  and  _543
REMARK  227  A    between atoms: _543  and  _544
REMARK  228  A    between atoms: _543  and  _546
REMARK  229  A    between atoms: _546  and  _547
REMARK                            x       y       z     vdW  Elec       q    Type
REMARK                         _______ _______ _______ _____ _____    ______ ____
ROOT
ATOM      1  C   ILE A   5      13.591  29.822  11.411  0.00  0.00    +0.241 C 
ATOM      2  N   ILE A   6      12.764  30.588  12.101  0.00  0.00    -0.297 N 
ATOM      3  H   ILE A   6      11.876  30.175  12.451  0.00  0.00    +0.150 HD
ATOM      4  O   ILE A   5      14.591  30.234  10.830  0.00  0.00    -0.273 OA
ENDROOT
BRANCH   2   5
ATOM      5  CA  ILE A   6      13.046  31.984  12.390  0.00  0.00    +0.149 C 
BRANCH   5   6
ATOM      6  C   ILE A   6      13.671  32.014  13.774  0.00  0.00    +0.241 C 
ATOM      7  O   ILE A   6      13.024  31.699  14.780  0.00  0.00    -0.273 OA
ATOM      8  N   GLY A   7      14.949  32.377  13.821  0.00  0.00    -0.295 N 
ATOM      9  H   GLY A   7      15.449  32.635  12.946  0.00  0.00    +0.150 HD
BRANCH   8  10
ATOM     10  CA  GLY A   7      15.647  32.413  15.094  0.00  0.00    +0.176 C 
BRANCH  10  11
ATOM     11  C   GLY A   7      15.766  33.781  15.717  0.00  0.00    +0.243 C 
ATOM     12  N   ARG A   8      16.476  33.854  16.830  0.00  0.00    -0.297 N 
ATOM     13  H   ARG A   8      17.042  33.039  17.142  0.00  0.00    +0.150 HD
ATOM     14  O   GLY A   7      15.235  34.754  15.207  0.00  0.00    -0.273 OA
BRANCH  12  15
ATOM     15  CA  ARG A   8      16.463  35.071  17.612  0.00  0.00    +0.149 C 
BRANCH  15  16
ATOM     16  C   ARG A   8      16.993  36.273  16.860  0.00  0.00    +0.241 C 
ATOM     17  O   ARG A   8      16.541  37.380  17.169  0.00  0.00    -0.273 OA
ATOM     18  N   ASN A   9      17.932  36.067  15.939  0.00  0.00    -0.298 N 
ATOM     19  H   ASN A   9      18.268  35.105  15.731  0.00  0.00    +0.150 HD
BRANCH  18  20
ATOM     20  CA  ASN A   9      18.482  37.219  15.225  0.00  0.00    +0.146 C 
BRANCH  20  21
ATOM     21  C   ASN A   9      17.412  38.032  14.493  0.00  0.00    +0.227 C 
ATOM     22  O   ASN A   9      17.623  39.230  14.333  0.00  0.00    -0.286 OA
ENDBRANCH  20  21
BRANCH  20  23
ATOM     23  CB  ASN A   9      19.578  36.833  14.255  0.00  0.00    +0.112 C 
BRANCH  23  24
ATOM     24  CG  ASN A   9      19.102  36.086  13.021  0.00  0.00    +0.222 C 
ATOM     25  OD1 ASN A   9      18.348  35.111  13.102  0.00  0.00    -0.275 OA
ATOM     26  ND2 ASN A   9      19.530  36.560  11.857  0.00  0.00    -0.329 N 
ATOM     27 HD21 ASN A   9      20.165  37.384  11.833  0.00  0.00    +0.145 HD
ATOM     28 HD22 ASN A   9      19.231  36.108  10.970  0.00  0.00    +0.145 HD
ENDBRANCH  23  24
ENDBRANCH  20  23
ENDBRANCH  18  20
ENDBRANCH  15  16
BRANCH  15  29
ATOM     29  CB  ARG A   8      17.283  34.853  18.870  0.00  0.00    +0.033 C 
BRANCH  29  30
ATOM     30  CG  ARG A   8      16.694  33.848  19.823  0.00  0.00    +0.045 C 
BRANCH  30  31
ATOM     31  CD  ARG A   8      17.385  33.824  21.168  0.00  0.00    +0.174 C 
BRANCH  31  32
ATOM     32  NE  ARG A   8      18.788  33.411  21.058  0.00  0.00    -0.265 N 
ATOM     33  CZ  ARG A   8      19.873  34.177  21.080  0.00  0.00    +0.342 C 
ATOM     34  NH2 ARG A   8      19.821  35.514  21.238  0.00  0.00    -0.292 N 
ATOM     35 HH21 ARG A   8      18.903  35.989  21.349  0.00  0.00    +0.255 HD
ATOM     36 HH22 ARG A   8      20.699  36.071  21.249  0.00  0.00    +0.255 HD
ATOM     37  NH1 ARG A   8      21.061  33.568  20.940  0.00  0.00    -0.292 N 
ATOM     38 HH11 ARG A   8      21.937  34.128  20.951  0.00  0.00    +0.255 HD
ATOM     39 HH12 ARG A   8      21.105  32.536  20.820  0.00  0.00    +0.255 HD
ATOM     40  HE  ARG A   8      18.954  32.390  20.949  0.00  0.00    +0.259 HD
ENDBRANCH  31  32
ENDBRANCH  30  31
ENDBRANCH  29  30
ENDBRANCH  15  29
ENDBRANCH  12  15
ENDBRANCH  10  11
ENDBRANCH   8  10
ENDBRANCH   5   6
BRANCH   5  41
ATOM     41  CB  ILE A   6      11.830  32.923  12.358  0.00  0.00    +0.027 C 
ATOM     42  CG2 ILE A   6      12.205  34.331  12.789  0.00  0.00    +0.002 C 
BRANCH  41  43
ATOM     43  CG1 ILE A   6      11.113  32.974  11.005  0.00  0.00    +0.002 C 
ATOM     44  CD1 ILE A   6      11.966  33.250   9.789  0.00  0.00    +0.000 C 
ENDBRANCH  41  43
ENDBRANCH   5  41
ENDBRANCH   2   5
BRANCH   1  45
ATOM     45  CA  ILE A   5      13.180  28.365  11.350  0.00  0.00    +0.149 C 
BRANCH  45  48
ATOM     46  C   ASN A   4      12.110  27.214   9.491  0.00  0.00    +0.241 C 
ATOM     47  O   ASN A   4      11.058  27.062  10.129  0.00  0.00    -0.273 OA
ATOM     48  N   ILE A   5      13.115  27.904   9.983  0.00  0.00    -0.297 N 
ATOM     49  H   ILE A   5      13.909  28.131   9.351  0.00  0.00    +0.150 HD
BRANCH  46  50
ATOM     50  CA  ASN A   4      12.257  26.637   8.091  0.00  0.00    +0.158 C 
BRANCH  50  53
ATOM     51  C   ILE A   3      12.515  24.315   8.629  0.00  0.00    +0.241 C 
ATOM     52  O   ILE A   3      13.636  24.508   9.122  0.00  0.00    -0.273 OA
ATOM     53  N   ASN A   4      11.782  25.259   8.057  0.00  0.00    -0.297 N 
ATOM     54  H   ASN A   4      10.883  25.021   7.592  0.00  0.00    +0.150 HD
BRANCH  51  55
ATOM     55  CA  ILE A   3      11.961  22.920   8.677  0.00  0.00    +0.149 C 
BRANCH  55  57
ATOM     56  C   PRO A   2      12.883  20.717   8.110  0.00  0.00    +0.241 C 
ATOM     57  N   ILE A   3      13.027  21.928   8.621  0.00  0.00    -0.297 N 
ATOM     58  H   ILE A   3      13.957  22.188   9.006  0.00  0.00    +0.150 HD
ATOM     59  O   PRO A   2      11.835  20.273   7.660  0.00  0.00    -0.273 OA
BRANCH  56  65
ATOM     60  C   THR A   1      15.880  21.274   7.391  0.00  0.00    +0.244 C 
ATOM     61  N   PRO A   2      15.356  20.482   8.324  0.00  0.00    -0.272 N 
ATOM     62  CD  PRO A   2      15.938  20.133   9.625  0.00  0.00    +0.094 C 
ATOM     63  CG  PRO A   2      14.909  19.222  10.252  0.00  0.00    +0.024 C 
ATOM     64  CB  PRO A   2      13.976  18.757   9.216  0.00  0.00    +0.031 C 
ATOM     65  CA  PRO A   2      14.092  19.777   8.077  0.00  0.00    +0.152 C 
ATOM     66  O   THR A   1      15.324  21.435   6.303  0.00  0.00    -0.273 OA
BRANCH  60  67
ATOM     67  CA  THR A   1      17.196  21.995   7.640  0.00  0.00    +0.172 C 
BRANCH  67  68
ATOM     68  N   THR A   1      18.019  22.049   6.418  0.00  0.00    -0.236 NA
ATOM     69  H   THR A   1      18.096  22.951   5.907  0.00  0.00    +0.142 HD
ENDBRANCH  67  68
BRANCH  67  70
ATOM     70  CB  THR A   1      16.921  23.408   8.203  0.00  0.00    +0.135 C 
ATOM     71  CG2 THR A   1      16.288  24.327   7.187  0.00  0.00    +0.034 C 
BRANCH  70  72
ATOM     72  OG1 THR A   1      16.043  23.244   9.300  0.00  0.00    -0.383 OA
ATOM     73  HG1 THR A   1      15.839  24.129   9.693  0.00  0.00    +0.210 HD
ENDBRANCH  70  72
ENDBRANCH  67  70
ENDBRANCH  60  67
ENDBRANCH  56  65
ENDBRANCH  55  57
BRANCH  55  74
ATOM     74  CB  ILE A   3      11.162  22.718   9.979  0.00  0.00    +0.027 C 
ATOM     75  CG2 ILE A   3      12.169  22.874  11.114  0.00  0.00    +0.002 C 
BRANCH  74  76
ATOM     76  CG1 ILE A   3       9.915  23.579  10.176  0.00  0.00    +0.002 C 
ATOM     77  CD1 ILE A   3       8.823  22.999  11.046  0.00  0.00    +0.000 C 
ENDBRANCH  74  76
ENDBRANCH  55  74
ENDBRANCH  51  55
ENDBRANCH  50  53
BRANCH  50  78
ATOM     78  CB  ASN A   4      11.446  27.502   7.137  0.00  0.00    +0.114 C 
BRANCH  78  79
ATOM     79  CG  ASN A   4      11.528  27.130   5.678  0.00  0.00    +0.222 C 
ATOM     80  OD1 ASN A   4      12.624  26.790   5.201  0.00  0.00    -0.275 OA
ATOM     81  ND2 ASN A   4      10.395  27.189   4.992  0.00  0.00    -0.329 N 
ATOM     82 HD21 ASN A   4       9.516  27.484   5.464  0.00  0.00    +0.145 HD
ATOM     83 HD22 ASN A   4      10.385  26.941   3.982  0.00  0.00    +0.145 HD
ENDBRANCH  78  79
ENDBRANCH  50  78
ENDBRANCH  46  50
ENDBRANCH  45  48
BRANCH  45  84
ATOM     84  CB  ILE A   5      14.207  27.575  12.177  0.00  0.00    +0.027 C 
ATOM     85  CG2 ILE A   5      14.537  28.323  13.441  0.00  0.00    +0.002 C 
BRANCH  84  86
ATOM     86  CG1 ILE A   5      13.791  26.132  12.468  0.00  0.00    +0.002 C 
ATOM     87  CD1 ILE A   5      14.976  25.217  12.670  0.00  0.00    +0.000 C 
ENDBRANCH  84  86
ENDBRANCH  45  84
ENDBRANCH   1  45
TORSDOF 33
REMARK  Name = ../refined-set-2016/3s54/3s54_pocket.pdb
REMARK  229 active torsions:
REMARK  status: ('A' for Active; 'I' for Inactive)
REMARK    1  A    between atoms: _1  and  _3
REMARK    2  A    between atoms: _3  and  _4
REMARK    3  A    between atoms: _3  and  _6
REMARK    4  A    between atoms: _6  and  _7
REMARK    5  A    between atoms: _7  and  _8
REMARK    6  A    between atoms: _8  and  _9
REMARK    7  A    between atoms: _18  and  _20
REMARK    8  A    between atoms: _20  and  _21
REMARK    9  A    between atoms: _20  and  _23
REMARK   10  A    between atoms: _23  and  _24
REMARK   11  A    between atoms: _27  and  _29
REMARK   12  A    between atoms: _29  and  _30
REMARK   13  A    between atoms: _29  and  _32
REMARK   14  A    between atoms: _32  and  _33
REMARK   15  A    between atoms: _36  and  _38
REMARK   16  A    between atoms: _38  and  _39
REMARK   17  A    between atoms: _38  and  _41
REMARK   18  A    between atoms: _41  and  _42
REMARK   19  A    between atoms: _45  and  _47
REMARK   20  A    between atoms: _47  and  _48
REMARK   21  A    between atoms: _47  and  _50
REMARK   22  A    between atoms: _50  and  _51
REMARK   23  A    between atoms: _54  and  _56
REMARK   24  A    between atoms: _56  and  _57
REMARK   25  A    between atoms: _59  and  _61
REMARK   26  A    between atoms: _61  and  _62
REMARK   27  A    between atoms: _65  and  _67
REMARK   28  A    between atoms: _67  and  _68
REMARK   29  A    between atoms: _67  and  _70
REMARK   30  A    between atoms: _70  and  _71
REMARK   31  A    between atoms: _74  and  _76
REMARK   32  A    between atoms: _76  and  _77
REMARK   33  A    between atoms: _76  and  _79
REMARK   34  A    between atoms: _79  and  _80
REMARK   35  A    between atoms: _80  and  _82
REMARK   36  A    between atoms: _83  and  _85
REMARK   37  A    between atoms: _85  and  _86
REMARK   38  A    between atoms: _85  and  _88
REMARK   39  A    between atoms: _88  and  _89
REMARK   40  A    between atoms: _92  and  _94
REMARK   41  A    between atoms: _94  and  _95
REMARK   42  A    between atoms: _94  and  _97
REMARK   43  A    between atoms: _97  and  _98
REMARK   44  A    between atoms: _101  and  _103
REMARK   45  A    between atoms: _103  and  _104
REMARK   46  A    between atoms: _103  and  _106
REMARK   47  A    between atoms: _106  and  _107
REMARK   48  A    between atoms: _107  and  _108
REMARK   49  A    between atoms: _108  and  _109
REMARK   50  A    between atoms: _109  and  _110
REMARK   51  A    between atoms: _114  and  _116
REMARK   52  A    between atoms: _116  and  _117
REMARK   53  A    between atoms: _116  and  _119
REMARK   54  A    between atoms: _119  and  _120
REMARK   55  A    between atoms: _120  and  _121
REMARK   56  A    between atoms: _123  and  _125
REMARK   57  A    between atoms: _125  and  _126
REMARK   58  A    between atoms: _125  and  _128
REMARK   59  A    between atoms: _131  and  _133
REMARK   60  A    between atoms: _133  and  _134
REMARK   61  A    between atoms: _136  and  _138
REMARK   62  A    between atoms: _138  and  _139
REMARK   63  A    between atoms: _141  and  _143
REMARK   64  A    between atoms: _143  and  _144
REMARK   65  A    between atoms: _143  and  _146
REMARK   66  A    between atoms: _146  and  _147
REMARK   67  A    between atoms: _150  and  _152
REMARK   68  A    between atoms: _152  and  _153
REMARK   69  A    between atoms: _155  and  _157
REMARK   70  A    between atoms: _157  and  _158
REMARK   71  A    between atoms: _160  and  _162
REMARK   72  A    between atoms: _162  and  _163
REMARK   73  A    between atoms: _162  and  _165
REMARK   74  A    between atoms: _165  and  _166
REMARK   75  A    between atoms: _172  and  _174
REMARK   76  A    between atoms: _174  and  _175
REMARK   77  A    between atoms: _174  and  _177
REMARK   78  A    between atoms: _177  and  _178
REMARK   79  A    between atoms: _181  and  _183
REMARK   80  A    between atoms: _183  and  _184
REMARK   81  A    between atoms: _183  and  _186
REMARK   82  A    between atoms: _189  and  _191
REMARK   83  A    between atoms: _191  and  _192
REMARK   84  A    between atoms: _191  and  _194
REMARK   85  A    between atoms: _194  and  _195
REMARK   86  A    between atoms: _198  and  _200
REMARK   87  A    between atoms: _200  and  _201
REMARK   88  A    between atoms: _200  and  _203
REMARK   89  A    between atoms: _203  and  _204
REMARK   90  A    between atoms: _208  and  _209
REMARK   91  A    between atoms: _214  and  _216
REMARK   92  A    between atoms: _216  and  _217
REMARK   93  A    between atoms: _216  and  _219
REMARK   94  A    between atoms: _219  and  _220
REMARK   95  A    between atoms: _223  and  _225
REMARK   96  A    between atoms: _225  and  _226
REMARK   97  A    between atoms: _225  and  _228
REMARK   98  A    between atoms: _228  and  _229
REMARK   99  A    between atoms: _234  and  _236
REMARK  100  A    between atoms: _236  and  _237
REMARK  101  A    between atoms: _236  and  _239
REMARK  102  A    between atoms: _239  and  _240
REMARK  103  A    between atoms: _243  and  _245
REMARK  104  A    between atoms: _245  and  _246
REMARK  105  A    between atoms: _245  and  _248
REMARK  106  A    between atoms: _248  and  _249
REMARK  107  A    between atoms: _252  and  _254
REMARK  108  A    between atoms: _254  and  _255
REMARK  109  A    between atoms: _257  and  _259
REMARK  110  A    between atoms: _259  and  _260
REMARK  111  A    between atoms: _259  and  _262
REMARK  112  A    between atoms: _262  and  _263
REMARK  113  A    between atoms: _263  and  _264
REMARK  114  A    between atoms: _264  and  _265
REMARK  115  A    between atoms: _274  and  _276
REMARK  116  A    between atoms: _276  and  _277
REMARK  117  A    between atoms: _276  and  _279
REMARK  118  A    between atoms: _279  and  _280
REMARK  119  A    between atoms: _285  and  _287
REMARK  120  A    between atoms: _287  and  _288
REMARK  121  A    between atoms: _287  and  _290
REMARK  122  A    between atoms: _290  and  _291
REMARK  123  A    between atoms: _291  and  _292
REMARK  124  A    between atoms: _292  and  _293
REMARK  125  A    between atoms: _302  and  _304
REMARK  126  A    between atoms: _304  and  _305
REMARK  127  A    between atoms: _304  and  _307
REMARK  128  A    between atoms: _307  and  _308
REMARK  129  A    between atoms: _311  and  _313
REMARK  130  A    between atoms: _313  and  _314
REMARK  131  A    between atoms: _313  and  _316
REMARK  132  A    between atoms: _316  and  _317
REMARK  133  A    between atoms: _320  and  _322
REMARK  134  A    between atoms: _322  and  _323
REMARK  135  A    between atoms: _322  and  _325
REMARK  136  A    between atoms: _325  and  _326
REMARK  137  A    between atoms: _329  and  _331
REMARK  138  A    between atoms: _331  and  _332
REMARK  139  A    between atoms: _331  and  _334
REMARK  140  A    between atoms: _334  and  _335
REMARK  141  A    between atoms: _338  and  _340
REMARK  142  A    between atoms: _340  and  _341
REMARK  143  A    between atoms: _343  and  _345
REMARK  144  A    between atoms: _345  and  _346
REMARK  145  A    between atoms: _349  and  _351
REMARK  146  A    between atoms: _351  and  _352
REMARK  147  A    between atoms: _351  and  _354
REMARK  148  A    between atoms: _354  and  _355
REMARK  149  A    between atoms: _358  and  _360
REMARK  150  A    between atoms: _360  and  _361
REMARK  151  A    between atoms: _360  and  _363
REMARK  152  A    between atoms: _363  and  _364
REMARK  153  A    between atoms: _364  and  _366
REMARK  154  A    between atoms: _367  and  _369
REMARK  155  A    between atoms: _369  and  _370
REMARK  156  A    between atoms: _369  and  _372
REMARK  157  A    between atoms: _372  and  _373
REMARK  158  A    between atoms: _376  and  _378
REMARK  159  A    between atoms: _378  and  _379
REMARK  160  A    between atoms: _378  and  _381
REMARK  161  A    between atoms: _381  and  _382
REMARK  162  A    between atoms: _385  and  _387
REMARK  163  A    between atoms: _387  and  _388
REMARK  164  A    between atoms: _387  and  _390
REMARK  165  A    between atoms: _390  and  _391
REMARK  166  A    between atoms: _391  and  _392
REMARK  167  A    between atoms: _392  and  _393
REMARK  168  A    between atoms: _393  and  _394
REMARK  169  A    between atoms: _398  and  _400
REMARK  170  A    between atoms: _400  and  _401
REMARK  171  A    between atoms: _400  and  _403
REMARK  172  A    between atoms: _403  and  _404
REMARK  173  A    between atoms: _404  and  _405
REMARK  174  A    between atoms: _407  and  _409
REMARK  175  A    between atoms: _409  and  _410
REMARK  176  A    between atoms: _409  and  _412
REMARK  177  A    between atoms: _415  and  _417
REMARK  178  A    between atoms: _417  and  _418
REMARK  179  A    between atoms: _420  and  _422
REMARK  180  A    between atoms: _422  and  _423
REMARK  181  A    between atoms: _425  and  _427
REMARK  182  A    between atoms: _427  and  _428
REMARK  183  A    between atoms: _427  and  _430
REMARK  184  A    between atoms: _430  and  _431
REMARK  185  A    between atoms: _434  and  _436
REMARK  186  A    between atoms: _436  and  _437
REMARK  187  A    between atoms: _439  and  _441
REMARK  188  A    between atoms: _441  and  _442
REMARK  189  A    between atoms: _444  and  _446
REMARK  190  A    between atoms: _446  and  _447
REMARK  191  A    between atoms: _446  and  _449
REMARK  192  A    between atoms: _449  and  _450
REMARK  193  A    between atoms: _456  and  _458
REMARK  194  A    between atoms: _458  and  _459
REMARK  195  A    between atoms: _458  and  _461
REMARK  196  A    between atoms: _461  and  _462
REMARK  197  A    between atoms: _465  and  _467
REMARK  198  A    between atoms: _467  and  _468
REMARK  199  A    between atoms: _467  and  _470
REMARK  200  A    between atoms: _470  and  _471
REMARK  201  A    between atoms: _474  and  _476
REMARK  202  A    between atoms: _476  and  _477
REMARK  203  A    between atoms: _476  and  _479
REMARK  204  A    between atoms: _479  and  _480
REMARK  205  A    between atoms: _484  and  _485
REMARK  206  A    between atoms: _490  and  _492
REMARK  207  A    between atoms: _492  and  _493
REMARK  208  A    between atoms: _492  and  _495
REMARK  209  A    between atoms: _495  and  _496
REMARK  210  A    between atoms: _499  and  _501
REMARK  211  A    between atoms: _501  and  _502
REMARK  212  A    between atoms: _501  and  _504
REMARK  213  A    between atoms: _504  and  _505
REMARK  214  A    between atoms: _510  and  _512
REMARK  215  A    between atoms: _512  and  _513
REMARK  216  A    between atoms: _512  and  _515
REMARK  217  A    between atoms: _515  and  _516
REMARK  218  A    between atoms: _519  and  _521
REMARK  219  A    between atoms: _521  and  _522
REMARK  220  A    between atoms: _524  and  _526
REMARK  221  A    between atoms: _526  and  _527
REMARK  222  A    between atoms: _526  and  _529
REMARK  223  A    between atoms: _529  and  _530
REMARK  224  A    between atoms: _530  and  _531
REMARK  225  A    between atoms: _531  and  _532
REMARK  226  A    between atoms: _541  and  _543
REMARK  227  A    between atoms: _543  and  _544
REMARK  228  A    between atoms: _543  and  _546
REMARK  229  A    between atoms: _546  and  _547
REMARK                            x       y       z     vdW  Elec       q    Type
REMARK                         _______ _______ _______ _____ _____    ______ ____
ROOT
ATOM      1  NE  ARG A   1      22.644  29.815  22.655  0.00  0.00    -0.265 N 
ATOM      2  CZ  ARG A   1      23.421  28.733  22.542  0.00  0.00    +0.342 C 
ATOM      3  NH2 ARG A   1      23.685  27.996  23.608  0.00  0.00    -0.292 N 
ATOM      4 HH21 ARG A   1      23.288  28.258  24.533  0.00  0.00    +0.255 HD
ATOM      5 HH22 ARG A   1      24.289  27.154  23.521  0.00  0.00    +0.255 HD
ATOM      6  NH1 ARG A   1      23.919  28.408  21.379  0.00  0.00    -0.292 N 
ATOM      7 HH11 ARG A   1      24.524  27.567  21.289  0.00  0.00    +0.255 HD
ATOM      8 HH12 ARG A   1      23.711  28.991  20.543  0.00  0.00    +0.255 HD
ATOM      9  HE  ARG A   1      22.442  30.384  21.808  0.00  0.00    +0.259 HD
ENDROOT
BRANCH   1  10
ATOM     10  CD  ARG A   1      22.067  30.223  23.945  0.00  0.00    +0.174 C 
BRANCH  10  11
ATOM     11  CG  ARG A   1      21.314  31.544  23.730  0.00  0.00    +0.045 C 
BRANCH  11  12
ATOM     12  CB  ARG A   1      20.527  31.947  24.971  0.00  0.00    +0.029 C 
BRANCH  12  13
ATOM     13  CA  ARG A   1      19.543  33.084  24.811  0.00  0.00    +0.133 C 
BRANCH  13  14
ATOM     14  N   ARG A   1      20.284  34.353  24.666  0.00  0.00    -0.239 NA
ATOM     15  H   ARG A   1      21.323  34.373  24.696  0.00  0.00    +0.142 HD
ENDBRANCH  13  14
BRANCH  13  16
ATOM     16  C   ARG A   1      18.605  33.118  25.995  0.00  0.00    +0.224 C 
ATOM     17  O   ARG A   1      19.053  33.576  27.046  0.00  0.00    -0.287 OA
ENDBRANCH  13  16
ENDBRANCH  12  13
ENDBRANCH  11  12
ENDBRANCH  10  11
ENDBRANCH   1  10
TORSDOF 6
REMARK  Name = ../refined-set-2016/3s54/3s54_pocket.pdb
REMARK  229 active torsions:
REMARK  status: ('A' for Active; 'I' for Inactive)
REMARK    1  A    between atoms: _1  and  _3
REMARK    2  A    between atoms: _3  and  _4
REMARK    3  A    between atoms: _3  and  _6
REMARK    4  A    between atoms: _6  and  _7
REMARK    5  A    between atoms: _7  and  _8
REMARK    6  A    between atoms: _8  and  _9
REMARK    7  A    between atoms: _18  and  _20
REMARK    8  A    between atoms: _20  and  _21
REMARK    9  A    between atoms: _20  and  _23
REMARK   10  A    between atoms: _23  and  _24
REMARK   11  A    between atoms: _27  and  _29
REMARK   12  A    between atoms: _29  and  _30
REMARK   13  A    between atoms: _29  and  _32
REMARK   14  A    between atoms: _32  and  _33
REMARK   15  A    between atoms: _36  and  _38
REMARK   16  A    between atoms: _38  and  _39
REMARK   17  A    between atoms: _38  and  _41
REMARK   18  A    between atoms: _41  and  _42
REMARK   19  A    between atoms: _45  and  _47
REMARK   20  A    between atoms: _47  and  _48
REMARK   21  A    between atoms: _47  and  _50
REMARK   22  A    between atoms: _50  and  _51
REMARK   23  A    between atoms: _54  and  _56
REMARK   24  A    between atoms: _56  and  _57
REMARK   25  A    between atoms: _59  and  _61
REMARK   26  A    between atoms: _61  and  _62
REMARK   27  A    between atoms: _65  and  _67
REMARK   28  A    between atoms: _67  and  _68
REMARK   29  A    between atoms: _67  and  _70
REMARK   30  A    between atoms: _70  and  _71
REMARK   31  A    between atoms: _74  and  _76
REMARK   32  A    between atoms: _76  and  _77
REMARK   33  A    between atoms: _76  and  _79
REMARK   34  A    between atoms: _79  and  _80
REMARK   35  A    between atoms: _80  and  _82
REMARK   36  A    between atoms: _83  and  _85
REMARK   37  A    between atoms: _85  and  _86
REMARK   38  A    between atoms: _85  and  _88
REMARK   39  A    between atoms: _88  and  _89
REMARK   40  A    between atoms: _92  and  _94
REMARK   41  A    between atoms: _94  and  _95
REMARK   42  A    between atoms: _94  and  _97
REMARK   43  A    between atoms: _97  and  _98
REMARK   44  A    between atoms: _101  and  _103
REMARK   45  A    between atoms: _103  and  _104
REMARK   46  A    between atoms: _103  and  _106
REMARK   47  A    between atoms: _106  and  _107
REMARK   48  A    between atoms: _107  and  _108
REMARK   49  A    between atoms: _108  and  _109
REMARK   50  A    between atoms: _109  and  _110
REMARK   51  A    between atoms: _114  and  _116
REMARK   52  A    between atoms: _116  and  _117
REMARK   53  A    between atoms: _116  and  _119
REMARK   54  A    between atoms: _119  and  _120
REMARK   55  A    between atoms: _120  and  _121
REMARK   56  A    between atoms: _123  and  _125
REMARK   57  A    between atoms: _125  and  _126
REMARK   58  A    between atoms: _125  and  _128
REMARK   59  A    between atoms: _131  and  _133
REMARK   60  A    between atoms: _133  and  _134
REMARK   61  A    between atoms: _136  and  _138
REMARK   62  A    between atoms: _138  and  _139
REMARK   63  A    between atoms: _141  and  _143
REMARK   64  A    between atoms: _143  and  _144
REMARK   65  A    between atoms: _143  and  _146
REMARK   66  A    between atoms: _146  and  _147
REMARK   67  A    between atoms: _150  and  _152
REMARK   68  A    between atoms: _152  and  _153
REMARK   69  A    between atoms: _155  and  _157
REMARK   70  A    between atoms: _157  and  _158
REMARK   71  A    between atoms: _160  and  _162
REMARK   72  A    between atoms: _162  and  _163
REMARK   73  A    between atoms: _162  and  _165
REMARK   74  A    between atoms: _165  and  _166
REMARK   75  A    between atoms: _172  and  _174
REMARK   76  A    between atoms: _174  and  _175
REMARK   77  A    between atoms: _174  and  _177
REMARK   78  A    between atoms: _177  and  _178
REMARK   79  A    between atoms: _181  and  _183
REMARK   80  A    between atoms: _183  and  _184
REMARK   81  A    between atoms: _183  and  _186
REMARK   82  A    between atoms: _189  and  _191
REMARK   83  A    between atoms: _191  and  _192
REMARK   84  A    between atoms: _191  and  _194
REMARK   85  A    between atoms: _194  and  _195
REMARK   86  A    between atoms: _198  and  _200
REMARK   87  A    between atoms: _200  and  _201
REMARK   88  A    between atoms: _200  and  _203
REMARK   89  A    between atoms: _203  and  _204
REMARK   90  A    between atoms: _208  and  _209
REMARK   91  A    between atoms: _214  and  _216
REMARK   92  A    between atoms: _216  and  _217
REMARK   93  A    between atoms: _216  and  _219
REMARK   94  A    between atoms: _219  and  _220
REMARK   95  A    between atoms: _223  and  _225
REMARK   96  A    between atoms: _225  and  _226
REMARK   97  A    between atoms: _225  and  _228
REMARK   98  A    between atoms: _228  and  _229
REMARK   99  A    between atoms: _234  and  _236
REMARK  100  A    between atoms: _236  and  _237
REMARK  101  A    between atoms: _236  and  _239
REMARK  102  A    between atoms: _239  and  _240
REMARK  103  A    between atoms: _243  and  _245
REMARK  104  A    between atoms: _245  and  _246
REMARK  105  A    between atoms: _245  and  _248
REMARK  106  A    between atoms: _248  and  _249
REMARK  107  A    between atoms: _252  and  _254
REMARK  108  A    between atoms: _254  and  _255
REMARK  109  A    between atoms: _257  and  _259
REMARK  110  A    between atoms: _259  and  _260
REMARK  111  A    between atoms: _259  and  _262
REMARK  112  A    between atoms: _262  and  _263
REMARK  113  A    between atoms: _263  and  _264
REMARK  114  A    between atoms: _264  and  _265
REMARK  115  A    between atoms: _274  and  _276
REMARK  116  A    between atoms: _276  and  _277
REMARK  117  A    between atoms: _276  and  _279
REMARK  118  A    between atoms: _279  and  _280
REMARK  119  A    between atoms: _285  and  _287
REMARK  120  A    between atoms: _287  and  _288
REMARK  121  A    between atoms: _287  and  _290
REMARK  122  A    between atoms: _290  and  _291
REMARK  123  A    between atoms: _291  and  _292
REMARK  124  A    between atoms: _292  and  _293
REMARK  125  A    between atoms: _302  and  _304
REMARK  126  A    between atoms: _304  and  _305
REMARK  127  A    between atoms: _304  and  _307
REMARK  128  A    between atoms: _307  and  _308
REMARK  129  A    between atoms: _311  and  _313
REMARK  130  A    between atoms: _313  and  _314
REMARK  131  A    between atoms: _313  and  _316
REMARK  132  A    between atoms: _316  and  _317
REMARK  133  A    between atoms: _320  and  _322
REMARK  134  A    between atoms: _322  and  _323
REMARK  135  A    between atoms: _322  and  _325
REMARK  136  A    between atoms: _325  and  _326
REMARK  137  A    between atoms: _329  and  _331
REMARK  138  A    between atoms: _331  and  _332
REMARK  139  A    between atoms: _331  and  _334
REMARK  140  A    between atoms: _334  and  _335
REMARK  141  A    between atoms: _338  and  _340
REMARK  142  A    between atoms: _340  and  _341
REMARK  143  A    between atoms: _343  and  _345
REMARK  144  A    between atoms: _345  and  _346
REMARK  145  A    between atoms: _349  and  _351
REMARK  146  A    between atoms: _351  and  _352
REMARK  147  A    between atoms: _351  and  _354
REMARK  148  A    between atoms: _354  and  _355
REMARK  149  A    between atoms: _358  and  _360
REMARK  150  A    between atoms: _360  and  _361
REMARK  151  A    between atoms: _360  and  _363
REMARK  152  A    between atoms: _363  and  _364
REMARK  153  A    between atoms: _364  and  _366
REMARK  154  A    between atoms: _367  and  _369
REMARK  155  A    between atoms: _369  and  _370
REMARK  156  A    between atoms: _369  and  _372
REMARK  157  A    between atoms: _372  and  _373
REMARK  158  A    between atoms: _376  and  _378
REMARK  159  A    between atoms: _378  and  _379
REMARK  160  A    between atoms: _378  and  _381
REMARK  161  A    between atoms: _381  and  _382
REMARK  162  A    between atoms: _385  and  _387
REMARK  163  A    between atoms: _387  and  _388
REMARK  164  A    between atoms: _387  and  _390
REMARK  165  A    between atoms: _390  and  _391
REMARK  166  A    between atoms: _391  and  _392
REMARK  167  A    between atoms: _392  and  _393
REMARK  168  A    between atoms: _393  and  _394
REMARK  169  A    between atoms: _398  and  _400
REMARK  170  A    between atoms: _400  and  _401
REMARK  171  A    between atoms: _400  and  _403
REMARK  172  A    between atoms: _403  and  _404
REMARK  173  A    between atoms: _404  and  _405
REMARK  174  A    between atoms: _407  and  _409
REMARK  175  A    between atoms: _409  and  _410
REMARK  176  A    between atoms: _409  and  _412
REMARK  177  A    between atoms: _415  and  _417
REMARK  178  A    between atoms: _417  and  _418
REMARK  179  A    between atoms: _420  and  _422
REMARK  180  A    between atoms: _422  and  _423
REMARK  181  A    between atoms: _425  and  _427
REMARK  182  A    between atoms: _427  and  _428
REMARK  183  A    between atoms: _427  and  _430
REMARK  184  A    between atoms: _430  and  _431
REMARK  185  A    between atoms: _434  and  _436
REMARK  186  A    between atoms: _436  and  _437
REMARK  187  A    between atoms: _439  and  _441
REMARK  188  A    between atoms: _441  and  _442
REMARK  189  A    between atoms: _444  and  _446
REMARK  190  A    between atoms: _446  and  _447
REMARK  191  A    between atoms: _446  and  _449
REMARK  192  A    between atoms: _449  and  _450
REMARK  193  A    between atoms: _456  and  _458
REMARK  194  A    between atoms: _458  and  _459
REMARK  195  A    between atoms: _458  and  _461
REMARK  196  A    between atoms: _461  and  _462
REMARK  197  A    between atoms: _465  and  _467
REMARK  198  A    between atoms: _467  and  _468
REMARK  199  A    between atoms: _467  and  _470
REMARK  200  A    between atoms: _470  and  _471
REMARK  201  A    between atoms: _474  and  _476
REMARK  202  A    between atoms: _476  and  _477
REMARK  203  A    between atoms: _476  and  _479
REMARK  204  A    between atoms: _479  and  _480
REMARK  205  A    between atoms: _484  and  _485
REMARK  206  A    between atoms: _490  and  _492
REMARK  207  A    between atoms: _492  and  _493
REMARK  208  A    between atoms: _492  and  _495
REMARK  209  A    between atoms: _495  and  _496
REMARK  210  A    between atoms: _499  and  _501
REMARK  211  A    between atoms: _501  and  _502
REMARK  212  A    between atoms: _501  and  _504
REMARK  213  A    between atoms: _504  and  _505
REMARK  214  A    between atoms: _510  and  _512
REMARK  215  A    between atoms: _512  and  _513
REMARK  216  A    between atoms: _512  and  _515
REMARK  217  A    between atoms: _515  and  _516
REMARK  218  A    between atoms: _519  and  _521
REMARK  219  A    between atoms: _521  and  _522
REMARK  220  A    between atoms: _524  and  _526
REMARK  221  A    between atoms: _526  and  _527
REMARK  222  A    between atoms: _526  and  _529
REMARK  223  A    between atoms: _529  and  _530
REMARK  224  A    between atoms: _530  and  _531
REMARK  225  A    between atoms: _531  and  _532
REMARK  226  A    between atoms: _541  and  _543
REMARK  227  A    between atoms: _543  and  _544
REMARK  228  A    between atoms: _543  and  _546
REMARK  229  A    between atoms: _546  and  _547
REMARK                            x       y       z     vdW  Elec       q    Type
REMARK                         _______ _______ _______ _____ _____    ______ ____
ROOT
ATOM      1  C   GLY A   5      10.987  23.883  18.847  0.00  0.00    +0.243 C 
ATOM      2  N   ALA A   6      10.908  23.536  20.118  0.00  0.00    -0.297 N 
ATOM      3  H   ALA A   6      10.769  24.306  20.803  0.00  0.00    +0.150 HD
ATOM      4  O   GLY A   5      11.132  23.050  17.931  0.00  0.00    -0.273 OA
ENDROOT
BRANCH   2   5
ATOM      5  CA  ALA A   6      10.995  22.197  20.659  0.00  0.00    +0.149 C 
ATOM      6  CB  ALA A   6      11.895  22.124  21.888  0.00  0.00    +0.031 C 
BRANCH   5   7
ATOM      7  C   ALA A   6       9.609  21.667  21.063  0.00  0.00    +0.241 C 
ATOM      8  O   ALA A   6       8.956  22.297  21.908  0.00  0.00    -0.273 OA
ATOM      9  N   ASP A   7       9.173  20.547  20.485  0.00  0.00    -0.297 N 
ATOM     10  H   ASP A   7       9.736  20.090  19.740  0.00  0.00    +0.150 HD
BRANCH   9  11
ATOM     11  CA  ASP A   7       7.893  19.962  20.906  0.00  0.00    +0.160 C 
BRANCH  11  12
ATOM     12  C   ASP A   7       7.945  19.481  22.355  0.00  0.00    +0.241 C 
ATOM     13  O   ASP A   7       6.999  19.629  23.159  0.00  0.00    -0.273 OA
ATOM     14  N   UNK A   8       9.091  18.920  22.706  0.00  0.00    -0.297 N 
ATOM     15  H   UNK A   8       9.859  19.121  22.034  0.00  0.00    +0.150 HD
BRANCH  14  16
ATOM     16  C   UNK A   8       9.515  18.099  23.800  0.00  0.00    +0.160 C 
BRANCH  16  17
ATOM     17  C   UNK A   8      10.644  18.661  24.664  0.00  0.00    +0.241 C 
ATOM     18  N   THR A   9      10.553  18.545  25.977  0.00  0.00    -0.295 N 
ATOM     19  H   THR A   9       9.668  18.172  26.377  0.00  0.00    +0.150 HD
ATOM     20  O   UNK A   8      11.628  19.191  24.135  0.00  0.00    -0.273 OA
BRANCH  18  21
ATOM     21  CA  THR A   9      11.621  18.910  26.894  0.00  0.00    +0.176 C 
BRANCH  21  22
ATOM     22  C   THR A   9      12.676  17.824  26.931  0.00  0.00    +0.243 C 
ATOM     23  O   THR A   9      12.305  16.650  27.076  0.00  0.00    -0.273 OA
ATOM     24  N   ILE A  10      13.927  18.225  26.773  0.00  0.00    -0.298 N 
ATOM     25  H   ILE A  10      14.139  19.235  26.641  0.00  0.00    +0.150 HD
BRANCH  24  26
ATOM     26  CA  ILE A  10      15.002  17.250  26.785  0.00  0.00    +0.137 C 
BRANCH  26  27
ATOM     27  C   ILE A  10      16.164  17.761  27.629  0.00  0.00    +0.227 C 
ATOM     28  O   ILE A  10      16.558  18.904  27.468  0.00  0.00    -0.286 OA
ENDBRANCH  26  27
BRANCH  26  29
ATOM     29  CB  ILE A  10      15.427  16.918  25.342  0.00  0.00    +0.026 C 
ATOM     30  CG2 ILE A  10      15.638  18.193  24.564  0.00  0.00    +0.002 C 
BRANCH  29  31
ATOM     31  CG1 ILE A  10      16.606  15.938  25.289  0.00  0.00    +0.002 C 
ATOM     32  CD1 ILE A  10      16.476  15.034  24.080  0.00  0.00    +0.000 C 
ENDBRANCH  29  31
ENDBRANCH  26  29
ENDBRANCH  24  26
ENDBRANCH  21  22
BRANCH  21  33
ATOM     33  CB  THR A   9      10.970  19.103  28.280  0.00  0.00    +0.137 C 
ATOM     34  CG2 THR A   9      12.030  19.328  29.349  0.00  0.00    +0.034 C 
BRANCH  33  35
ATOM     35  OG1 THR A   9      10.099  20.252  28.158  0.00  0.00    -0.382 OA
ATOM     36  HG1 THR A   9       9.416  20.074  27.464  0.00  0.00    +0.210 HD
ENDBRANCH  33  35
ENDBRANCH  21  33
ENDBRANCH  18  21
ENDBRANCH  16  17
BRANCH  16  37
ATOM     37  C   UNK A   8      10.084  16.779  23.238  0.00  0.00    +0.142 C 
BRANCH  37  38
ATOM     38  C   UNK A   8       9.218  16.081  22.219  0.00  0.00    +0.357 C 
ATOM     39  O   UNK A   8       7.980  16.136  22.345  0.00  0.00    -0.247 OA
BRANCH  38  40
ATOM     40  O   UNK A   8       9.779  15.459  21.276  0.00  0.00    -0.265 OA
ATOM     41  O   UNK A   8       9.794  15.245  19.949  0.00  0.00    +0.031 OA
ENDBRANCH  38  40
ENDBRANCH  37  38
ENDBRANCH  16  37
ENDBRANCH  14  16
ENDBRANCH  11  12
BRANCH  11  42
ATOM     42  CB  ASP A   7       7.480  18.827  19.964  0.00  0.00    +0.143 C 
BRANCH  42  43
ATOM     43  CG  ASP A   7       7.220  19.164  18.498  0.00  0.00    +0.367 C 
ATOM     44  OD2 ASP A   7       7.045  20.361  18.134  0.00  0.00    -0.246 OA
ATOM     45  OD1 ASP A   7       7.208  18.205  17.642  0.00  0.00    -0.246 OA
ENDBRANCH  42  43
ENDBRANCH  11  42
ENDBRANCH   9  11
ENDBRANCH   5   7
ENDBRANCH   2   5
BRANCH   1  46
ATOM     46  CA  GLY A   5      10.802  25.342  18.498  0.00  0.00    +0.176 C 
BRANCH  46  49
ATOM     47  C   THR A   4       9.492  26.492  20.154  0.00  0.00    +0.243 C 
ATOM     48  O   THR A   4       8.436  26.041  19.670  0.00  0.00    -0.273 OA
ATOM     49  N   GLY A   5      10.675  26.230  19.613  0.00  0.00    -0.295 N 
ATOM     50  H   GLY A   5      11.526  26.679  20.007  0.00  0.00    +0.150 HD
BRANCH  47  51
ATOM     51  CA  THR A   4       9.445  27.393  21.378  0.00  0.00    +0.176 C 
BRANCH  51  54
ATOM     52  C   ASP A   3      11.261  26.464  22.651  0.00  0.00    +0.241 C 
ATOM     53  O   ASP A   3      10.743  25.334  22.664  0.00  0.00    -0.273 OA
ATOM     54  N   THR A   4      10.752  27.528  22.007  0.00  0.00    -0.295 N 
ATOM     55  H   THR A   4      11.277  28.424  21.959  0.00  0.00    +0.150 HD
BRANCH  52  56
ATOM     56  CA  ASP A   3      12.592  26.737  23.311  0.00  0.00    +0.160 C 
BRANCH  56  58
ATOM     57  C   LEU A   2      13.043  28.061  25.279  0.00  0.00    +0.241 C 
ATOM     58  N   ASP A   3      12.510  26.958  24.737  0.00  0.00    -0.297 N 
ATOM     59  H   ASP A   3      12.036  26.259  25.344  0.00  0.00    +0.150 HD
ATOM     60  O   LEU A   2      13.426  29.018  24.600  0.00  0.00    -0.273 OA
BRANCH  57  61
ATOM     61  CA  LEU A   2      13.190  28.071  26.791  0.00  0.00    +0.149 C 
BRANCH  61  63
ATOM     62  C   LEU A   1      15.351  26.982  27.063  0.00  0.00    +0.238 C 
ATOM     63  N   LEU A   2      14.618  28.102  27.145  0.00  0.00    -0.297 N 
ATOM     64  H   LEU A   2      15.058  28.991  27.458  0.00  0.00    +0.150 HD
ATOM     65  O   LEU A   1      14.827  25.873  26.815  0.00  0.00    -0.274 OA
BRANCH  62  66
ATOM     66  CA  LEU A   1      16.838  27.054  27.299  0.00  0.00    +0.145 C 
BRANCH  66  67
ATOM     67  N   LEU A   1      17.266  26.117  28.337  0.00  0.00    -0.238 NA
ATOM     68  H   LEU A   1      17.487  25.142  28.052  0.00  0.00    +0.142 HD
ENDBRANCH  66  67
BRANCH  66  69
ATOM     69  CB  LEU A   1      17.649  26.681  26.048  0.00  0.00    +0.026 C 
BRANCH  69  70
ATOM     70  CG  LEU A   1      17.469  27.473  24.785  0.00  0.00    +0.002 C 
ATOM     71  CD2 LEU A   1      17.945  28.901  25.021  0.00  0.00    +0.000 C 
ATOM     72  CD1 LEU A   1      18.200  26.808  23.616  0.00  0.00    +0.000 C 
ENDBRANCH  69  70
ENDBRANCH  66  69
ENDBRANCH  62  66
ENDBRANCH  61  63
BRANCH  61  73
ATOM     73  CB  LEU A   2      12.446  29.280  27.347  0.00  0.00    +0.029 C 
BRANCH  73  74
ATOM     74  CG  LEU A   2      12.543  29.461  28.873  0.00  0.00    +0.002 C 
ATOM     75  CD2 LEU A   2      11.907  28.284  29.595  0.00  0.00    +0.000 C 
ATOM     76  CD1 LEU A   2      11.875  30.761  29.314  0.00  0.00    +0.000 C 
ENDBRANCH  73  74
ENDBRANCH  61  73
ENDBRANCH  57  61
ENDBRANCH  56  58
BRANCH  56  77
ATOM     77  CB  ASP A   3      13.516  25.553  23.084  0.00  0.00    +0.143 C 
BRANCH  77  78
ATOM     78  CG  ASP A   3      13.890  25.347  21.645  0.00  0.00    +0.367 C 
ATOM     79  OD2 ASP A   3      14.805  24.501  21.446  0.00  0.00    -0.246 OA
ATOM     80  OD1 ASP A   3      13.332  26.000  20.704  0.00  0.00    -0.246 OA
ENDBRANCH  77  78
ENDBRANCH  56  77
ENDBRANCH  52  56
ENDBRANCH  51  54
BRANCH  51  81
ATOM     81  CB  THR A   4       8.860  28.767  20.986  0.00  0.00    +0.137 C 
ATOM     82  CG2 THR A   4       8.662  29.691  22.192  0.00  0.00    +0.034 C 
BRANCH  81  83
ATOM     83  OG1 THR A   4       9.756  29.431  20.105  0.00  0.00    -0.382 OA
ATOM     84  HG1 THR A   4       9.884  28.882  19.291  0.00  0.00    +0.210 HD
ENDBRANCH  81  83
ENDBRANCH  51  81
ENDBRANCH  47  51
ENDBRANCH  46  49
ENDBRANCH   1  46
TORSDOF 37
REMARK  Name = ../refined-set-2016/3s54/3s54_pocket.pdb
REMARK  229 active torsions:
REMARK  status: ('A' for Active; 'I' for Inactive)
REMARK    1  A    between atoms: _1  and  _3
REMARK    2  A    between atoms: _3  and  _4
REMARK    3  A    between atoms: _3  and  _6
REMARK    4  A    between atoms: _6  and  _7
REMARK    5  A    between atoms: _7  and  _8
REMARK    6  A    between atoms: _8  and  _9
REMARK    7  A    between atoms: _18  and  _20
REMARK    8  A    between atoms: _20  and  _21
REMARK    9  A    between atoms: _20  and  _23
REMARK   10  A    between atoms: _23  and  _24
REMARK   11  A    between atoms: _27  and  _29
REMARK   12  A    between atoms: _29  and  _30
REMARK   13  A    between atoms: _29  and  _32
REMARK   14  A    between atoms: _32  and  _33
REMARK   15  A    between atoms: _36  and  _38
REMARK   16  A    between atoms: _38  and  _39
REMARK   17  A    between atoms: _38  and  _41
REMARK   18  A    between atoms: _41  and  _42
REMARK   19  A    between atoms: _45  and  _47
REMARK   20  A    between atoms: _47  and  _48
REMARK   21  A    between atoms: _47  and  _50
REMARK   22  A    between atoms: _50  and  _51
REMARK   23  A    between atoms: _54  and  _56
REMARK   24  A    between atoms: _56  and  _57
REMARK   25  A    between atoms: _59  and  _61
REMARK   26  A    between atoms: _61  and  _62
REMARK   27  A    between atoms: _65  and  _67
REMARK   28  A    between atoms: _67  and  _68
REMARK   29  A    between atoms: _67  and  _70
REMARK   30  A    between atoms: _70  and  _71
REMARK   31  A    between atoms: _74  and  _76
REMARK   32  A    between atoms: _76  and  _77
REMARK   33  A    between atoms: _76  and  _79
REMARK   34  A    between atoms: _79  and  _80
REMARK   35  A    between atoms: _80  and  _82
REMARK   36  A    between atoms: _83  and  _85
REMARK   37  A    between atoms: _85  and  _86
REMARK   38  A    between atoms: _85  and  _88
REMARK   39  A    between atoms: _88  and  _89
REMARK   40  A    between atoms: _92  and  _94
REMARK   41  A    between atoms: _94  and  _95
REMARK   42  A    between atoms: _94  and  _97
REMARK   43  A    between atoms: _97  and  _98
REMARK   44  A    between atoms: _101  and  _103
REMARK   45  A    between atoms: _103  and  _104
REMARK   46  A    between atoms: _103  and  _106
REMARK   47  A    between atoms: _106  and  _107
REMARK   48  A    between atoms: _107  and  _108
REMARK   49  A    between atoms: _108  and  _109
REMARK   50  A    between atoms: _109  and  _110
REMARK   51  A    between atoms: _114  and  _116
REMARK   52  A    between atoms: _116  and  _117
REMARK   53  A    between atoms: _116  and  _119
REMARK   54  A    between atoms: _119  and  _120
REMARK   55  A    between atoms: _120  and  _121
REMARK   56  A    between atoms: _123  and  _125
REMARK   57  A    between atoms: _125  and  _126
REMARK   58  A    between atoms: _125  and  _128
REMARK   59  A    between atoms: _131  and  _133
REMARK   60  A    between atoms: _133  and  _134
REMARK   61  A    between atoms: _136  and  _138
REMARK   62  A    between atoms: _138  and  _139
REMARK   63  A    between atoms: _141  and  _143
REMARK   64  A    between atoms: _143  and  _144
REMARK   65  A    between atoms: _143  and  _146
REMARK   66  A    between atoms: _146  and  _147
REMARK   67  A    between atoms: _150  and  _152
REMARK   68  A    between atoms: _152  and  _153
REMARK   69  A    between atoms: _155  and  _157
REMARK   70  A    between atoms: _157  and  _158
REMARK   71  A    between atoms: _160  and  _162
REMARK   72  A    between atoms: _162  and  _163
REMARK   73  A    between atoms: _162  and  _165
REMARK   74  A    between atoms: _165  and  _166
REMARK   75  A    between atoms: _172  and  _174
REMARK   76  A    between atoms: _174  and  _175
REMARK   77  A    between atoms: _174  and  _177
REMARK   78  A    between atoms: _177  and  _178
REMARK   79  A    between atoms: _181  and  _183
REMARK   80  A    between atoms: _183  and  _184
REMARK   81  A    between atoms: _183  and  _186
REMARK   82  A    between atoms: _189  and  _191
REMARK   83  A    between atoms: _191  and  _192
REMARK   84  A    between atoms: _191  and  _194
REMARK   85  A    between atoms: _194  and  _195
REMARK   86  A    between atoms: _198  and  _200
REMARK   87  A    between atoms: _200  and  _201
REMARK   88  A    between atoms: _200  and  _203
REMARK   89  A    between atoms: _203  and  _204
REMARK   90  A    between atoms: _208  and  _209
REMARK   91  A    between atoms: _214  and  _216
REMARK   92  A    between atoms: _216  and  _217
REMARK   93  A    between atoms: _216  and  _219
REMARK   94  A    between atoms: _219  and  _220
REMARK   95  A    between atoms: _223  and  _225
REMARK   96  A    between atoms: _225  and  _226
REMARK   97  A    between atoms: _225  and  _228
REMARK   98  A    between atoms: _228  and  _229
REMARK   99  A    between atoms: _234  and  _236
REMARK  100  A    between atoms: _236  and  _237
REMARK  101  A    between atoms: _236  and  _239
REMARK  102  A    between atoms: _239  and  _240
REMARK  103  A    between atoms: _243  and  _245
REMARK  104  A    between atoms: _245  and  _246
REMARK  105  A    between atoms: _245  and  _248
REMARK  106  A    between atoms: _248  and  _249
REMARK  107  A    between atoms: _252  and  _254
REMARK  108  A    between atoms: _254  and  _255
REMARK  109  A    between atoms: _257  and  _259
REMARK  110  A    between atoms: _259  and  _260
REMARK  111  A    between atoms: _259  and  _262
REMARK  112  A    between atoms: _262  and  _263
REMARK  113  A    between atoms: _263  and  _264
REMARK  114  A    between atoms: _264  and  _265
REMARK  115  A    between atoms: _274  and  _276
REMARK  116  A    between atoms: _276  and  _277
REMARK  117  A    between atoms: _276  and  _279
REMARK  118  A    between atoms: _279  and  _280
REMARK  119  A    between atoms: _285  and  _287
REMARK  120  A    between atoms: _287  and  _288
REMARK  121  A    between atoms: _287  and  _290
REMARK  122  A    between atoms: _290  and  _291
REMARK  123  A    between atoms: _291  and  _292
REMARK  124  A    between atoms: _292  and  _293
REMARK  125  A    between atoms: _302  and  _304
REMARK  126  A    between atoms: _304  and  _305
REMARK  127  A    between atoms: _304  and  _307
REMARK  128  A    between atoms: _307  and  _308
REMARK  129  A    between atoms: _311  and  _313
REMARK  130  A    between atoms: _313  and  _314
REMARK  131  A    between atoms: _313  and  _316
REMARK  132  A    between atoms: _316  and  _317
REMARK  133  A    between atoms: _320  and  _322
REMARK  134  A    between atoms: _322  and  _323
REMARK  135  A    between atoms: _322  and  _325
REMARK  136  A    between atoms: _325  and  _326
REMARK  137  A    between atoms: _329  and  _331
REMARK  138  A    between atoms: _331  and  _332
REMARK  139  A    between atoms: _331  and  _334
REMARK  140  A    between atoms: _334  and  _335
REMARK  141  A    between atoms: _338  and  _340
REMARK  142  A    between atoms: _340  and  _341
REMARK  143  A    between atoms: _343  and  _345
REMARK  144  A    between atoms: _345  and  _346
REMARK  145  A    between atoms: _349  and  _351
REMARK  146  A    between atoms: _351  and  _352
REMARK  147  A    between atoms: _351  and  _354
REMARK  148  A    between atoms: _354  and  _355
REMARK  149  A    between atoms: _358  and  _360
REMARK  150  A    between atoms: _360  and  _361
REMARK  151  A    between atoms: _360  and  _363
REMARK  152  A    between atoms: _363  and  _364
REMARK  153  A    between atoms: _364  and  _366
REMARK  154  A    between atoms: _367  and  _369
REMARK  155  A    between atoms: _369  and  _370
REMARK  156  A    between atoms: _369  and  _372
REMARK  157  A    between atoms: _372  and  _373
REMARK  158  A    between atoms: _376  and  _378
REMARK  159  A    between atoms: _378  and  _379
REMARK  160  A    between atoms: _378  and  _381
REMARK  161  A    between atoms: _381  and  _382
REMARK  162  A    between atoms: _385  and  _387
REMARK  163  A    between atoms: _387  and  _388
REMARK  164  A    between atoms: _387  and  _390
REMARK  165  A    between atoms: _390  and  _391
REMARK  166  A    between atoms: _391  and  _392
REMARK  167  A    between atoms: _392  and  _393
REMARK  168  A    between atoms: _393  and  _394
REMARK  169  A    between atoms: _398  and  _400
REMARK  170  A    between atoms: _400  and  _401
REMARK  171  A    between atoms: _400  and  _403
REMARK  172  A    between atoms: _403  and  _404
REMARK  173  A    between atoms: _404  and  _405
REMARK  174  A    between atoms: _407  and  _409
REMARK  175  A    between atoms: _409  and  _410
REMARK  176  A    between atoms: _409  and  _412
REMARK  177  A    between atoms: _415  and  _417
REMARK  178  A    between atoms: _417  and  _418
REMARK  179  A    between atoms: _420  and  _422
REMARK  180  A    between atoms: _422  and  _423
REMARK  181  A    between atoms: _425  and  _427
REMARK  182  A    between atoms: _427  and  _428
REMARK  183  A    between atoms: _427  and  _430
REMARK  184  A    between atoms: _430  and  _431
REMARK  185  A    between atoms: _434  and  _436
REMARK  186  A    between atoms: _436  and  _437
REMARK  187  A    between atoms: _439  and  _441
REMARK  188  A    between atoms: _441  and  _442
REMARK  189  A    between atoms: _444  and  _446
REMARK  190  A    between atoms: _446  and  _447
REMARK  191  A    between atoms: _446  and  _449
REMARK  192  A    between atoms: _449  and  _450
REMARK  193  A    between atoms: _456  and  _458
REMARK  194  A    between atoms: _458  and  _459
REMARK  195  A    between atoms: _458  and  _461
REMARK  196  A    between atoms: _461  and  _462
REMARK  197  A    between atoms: _465  and  _467
REMARK  198  A    between atoms: _467  and  _468
REMARK  199  A    between atoms: _467  and  _470
REMARK  200  A    between atoms: _470  and  _471
REMARK  201  A    between atoms: _474  and  _476
REMARK  202  A    between atoms: _476  and  _477
REMARK  203  A    between atoms: _476  and  _479
REMARK  204  A    between atoms: _479  and  _480
REMARK  205  A    between atoms: _484  and  _485
REMARK  206  A    between atoms: _490  and  _492
REMARK  207  A    between atoms: _492  and  _493
REMARK  208  A    between atoms: _492  and  _495
REMARK  209  A    between atoms: _495  and  _496
REMARK  210  A    between atoms: _499  and  _501
REMARK  211  A    between atoms: _501  and  _502
REMARK  212  A    between atoms: _501  and  _504
REMARK  213  A    between atoms: _504  and  _505
REMARK  214  A    between atoms: _510  and  _512
REMARK  215  A    between atoms: _512  and  _513
REMARK  216  A    between atoms: _512  and  _515
REMARK  217  A    between atoms: _515  and  _516
REMARK  218  A    between atoms: _519  and  _521
REMARK  219  A    between atoms: _521  and  _522
REMARK  220  A    between atoms: _524  and  _526
REMARK  221  A    between atoms: _526  and  _527
REMARK  222  A    between atoms: _526  and  _529
REMARK  223  A    between atoms: _529  and  _530
REMARK  224  A    between atoms: _530  and  _531
REMARK  225  A    between atoms: _531  and  _532
REMARK  226  A    between atoms: _541  and  _543
REMARK  227  A    between atoms: _543  and  _544
REMARK  228  A    between atoms: _543  and  _546
REMARK  229  A    between atoms: _546  and  _547
REMARK                            x       y       z     vdW  Elec       q    Type
REMARK                         _______ _______ _______ _____ _____    ______ ____
ROOT
ATOM      1  C   GLY A   5      17.283  18.155  13.800  0.00  0.00    +0.243 C 
ATOM      2  N   ILE A   6      17.994  19.267  13.874  0.00  0.00    -0.297 N 
ATOM      3  H   ILE A   6      18.150  19.720  14.797  0.00  0.00    +0.150 HD
ATOM      4  O   GLY A   5      17.187  17.478  12.795  0.00  0.00    -0.273 OA
ENDROOT
BRANCH   1   5
ATOM      5  CA  GLY A   5      16.580  17.746  15.088  0.00  0.00    +0.176 C 
BRANCH   5   8
ATOM      6  C   GLY A   4      14.990  15.945  15.246  0.00  0.00    +0.243 C 
ATOM      7  O   GLY A   4      14.135  16.786  15.535  0.00  0.00    -0.273 OA
ATOM      8  N   GLY A   5      16.236  16.340  15.015  0.00  0.00    -0.295 N 
ATOM      9  H   GLY A   5      16.967  15.639  14.781  0.00  0.00    +0.150 HD
BRANCH   6  10
ATOM     10  CA  GLY A   4      14.675  14.462  15.138  0.00  0.00    +0.176 C 
BRANCH  10  13
ATOM     11  C   VAL A   3      14.726  13.251  17.227  0.00  0.00    +0.241 C 
ATOM     12  O   VAL A   3      15.909  12.957  17.138  0.00  0.00    -0.273 OA
ATOM     13  N   GLY A   4      14.022  13.963  16.348  0.00  0.00    -0.295 N 
ATOM     14  H   GLY A   4      13.016  14.162  16.521  0.00  0.00    +0.150 HD
BRANCH  11  15
ATOM     15  CA  VAL A   3      13.977  12.773  18.466  0.00  0.00    +0.149 C 
BRANCH  15  17
ATOM     16  C   MET A   2      13.219  10.478  18.524  0.00  0.00    +0.241 C 
ATOM     17  N   VAL A   3      14.208  11.338  18.559  0.00  0.00    -0.297 N 
ATOM     18  H   VAL A   3      15.182  10.987  18.656  0.00  0.00    +0.150 HD
ATOM     19  O   MET A   2      12.034  10.821  18.402  0.00  0.00    -0.273 OA
BRANCH  16  20
ATOM     20  CA  MET A   2      13.497   8.984  18.639  0.00  0.00    +0.149 C 
BRANCH  20  23
ATOM     21  C   LYS A   1      12.909   8.164  20.881  0.00  0.00    +0.238 C 
ATOM     22  O   LYS A   1      14.050   8.198  21.318  0.00  0.00    -0.274 OA
ATOM     23  N   MET A   2      12.586   8.456  19.637  0.00  0.00    -0.297 N 
ATOM     24  H   MET A   2      11.600   8.295  19.348  0.00  0.00    +0.150 HD
BRANCH  21  25
ATOM     25  CA  LYS A   1      11.708   7.739  21.721  0.00  0.00    +0.145 C 
BRANCH  25  26
ATOM     26  N   LYS A   1      12.127   6.700  22.645  0.00  0.00    -0.238 NA
ATOM     27  H   LYS A   1      13.120   6.654  22.951  0.00  0.00    +0.142 HD
ENDBRANCH  25  26
BRANCH  25  28
ATOM     28  CB  LYS A   1      11.086   8.919  22.439  0.00  0.00    +0.026 C 
BRANCH  28  29
ATOM     29  CG  LYS A   1      10.348   9.878  21.511  0.00  0.00    -0.000 C 
BRANCH  29  30
ATOM     30  CD  LYS A   1       9.833  11.060  22.330  0.00  0.00    -0.024 C 
BRANCH  30  31
ATOM     31  CE  LYS A   1       9.419  12.146  21.358  0.00  0.00    -0.086 C 
BRANCH  31  32
ATOM     32  NZ  LYS A   1       8.225  11.779  20.555  0.00  0.00    +0.380 N 
ATOM     33  HZ1 LYS A   1       7.422  11.600  21.192  0.00  0.00    -0.089 HD
ATOM     34  HZ2 LYS A   1       8.430  10.921  20.004  0.00  0.00    -0.089 HD
ATOM     35  HZ3 LYS A   1       7.990  12.560  19.909  0.00  0.00    -0.089 HD
ENDBRANCH  31  32
ENDBRANCH  30  31
ENDBRANCH  29  30
ENDBRANCH  28  29
ENDBRANCH  25  28
ENDBRANCH  21  25
ENDBRANCH  20  23
BRANCH  20  36
ATOM     36  CB  MET A   2      13.314   8.344  17.258  0.00  0.00    +0.041 C 
BRANCH  36  37
ATOM     37  CG  MET A   2      13.796   6.917  17.146  0.00  0.00    +0.060 C 
BRANCH  37  38
ATOM     38  SD  MET A   2      15.468   6.702  17.774  0.00  0.00    -0.139 S 
ATOM     39  CE  MET A   2      16.374   7.708  16.619  0.00  0.00    +0.069 C 
ENDBRANCH  37  38
ENDBRANCH  36  37
ENDBRANCH  20  36
ENDBRANCH  16  20
ENDBRANCH  15  17
BRANCH  15  40
ATOM     40  CB  VAL A   3      14.456  13.519  19.726  0.00  0.00    +0.027 C 
ATOM     41  CG2 VAL A   3      13.601  13.160  20.929  0.00  0.00    +0.002 C 
ATOM     42  CG1 VAL A   3      14.395  15.010  19.517  0.00  0.00    +0.002 C 
ENDBRANCH  15  40
ENDBRANCH  11  15
ENDBRANCH  10  13
ENDBRANCH   6  10
ENDBRANCH   5   8
ENDBRANCH   1   5
BRANCH   2  43
ATOM     43  CA  ILE A   6      18.558  19.860  12.674  0.00  0.00    +0.149 C 
BRANCH  43  44
ATOM     44  C   ILE A   6      19.493  18.905  11.967  0.00  0.00    +0.241 C 
ATOM     45  N   GLY A   7      20.222  18.114  12.756  0.00  0.00    -0.295 N 
ATOM     46  H   GLY A   7      19.974  18.044  13.764  0.00  0.00    +0.150 HD
ATOM     47  O   ILE A   6      19.561  18.914  10.752  0.00  0.00    -0.273 OA
BRANCH  45  48
ATOM     48  CA  GLY A   7      21.348  17.349  12.257  0.00  0.00    +0.176 C 
BRANCH  48  49
ATOM     49  C   GLY A   7      21.103  15.872  12.082  0.00  0.00    +0.243 C 
ATOM     50  N   GLY A   8      19.906  15.425  12.365  0.00  0.00    -0.295 N 
ATOM     51  H   GLY A   8      19.186  16.128  12.627  0.00  0.00    +0.150 HD
ATOM     52  O   GLY A   7      22.021  15.158  11.682  0.00  0.00    -0.273 OA
BRANCH  50  53
ATOM     53  CA  GLY A   8      19.494  14.020  12.345  0.00  0.00    +0.176 C 
BRANCH  53  54
ATOM     54  C   GLY A   8      18.786  13.635  13.621  0.00  0.00    +0.243 C 
ATOM     55  O   GLY A   8      18.376  14.485  14.413  0.00  0.00    -0.273 OA
ATOM     56  N   PHE A   9      18.618  12.349  13.832  0.00  0.00    -0.297 N 
ATOM     57  H   PHE A   9      19.014  11.681  13.140  0.00  0.00    +0.150 HD
BRANCH  56  58
ATOM     58  CA  PHE A   9      17.919  11.816  14.965  0.00  0.00    +0.153 C 
BRANCH  58  59
ATOM     59  C   PHE A   9      18.809  11.326  16.097  0.00  0.00    +0.241 C 
ATOM     60  N   ILE A  10      18.309  11.337  17.321  0.00  0.00    -0.298 N 
ATOM     61  H   ILE A  10      17.414  11.845  17.474  0.00  0.00    +0.150 HD
ATOM     62  O   PHE A   9      19.957  10.918  15.863  0.00  0.00    -0.273 OA
BRANCH  60  63
ATOM     63  CA  ILE A  10      18.919  10.693  18.459  0.00  0.00    +0.137 C 
BRANCH  63  64
ATOM     64  CB  ILE A  10      19.510  11.749  19.416  0.00  0.00    +0.026 C 
ATOM     65  CG2 ILE A  10      20.649  12.508  18.720  0.00  0.00    +0.002 C 
BRANCH  64  66
ATOM     66  CG1 ILE A  10      18.443  12.661  20.010  0.00  0.00    +0.002 C 
ATOM     67  CD1 ILE A  10      18.918  13.577  21.136  0.00  0.00    +0.000 C 
ENDBRANCH  64  66
ENDBRANCH  63  64
BRANCH  63  68
ATOM     68  C   ILE A  10      17.904   9.854  19.217  0.00  0.00    +0.227 C 
ATOM     69  O   ILE A  10      16.709  10.144  19.203  0.00  0.00    -0.286 OA
ENDBRANCH  63  68
ENDBRANCH  60  63
ENDBRANCH  58  59
BRANCH  58  70
ATOM     70  CB  PHE A   9      17.108  10.601  14.457  0.00  0.00    +0.055 C 
BRANCH  70  71
ATOM     71  CG  PHE A   9      15.877  11.024  13.681  0.00  0.00    -0.020 A 
ATOM     72  CD2 PHE A   9      14.661  11.129  14.332  0.00  0.00    -0.004 A 
ATOM     73  CE2 PHE A   9      13.512  11.519  13.680  0.00  0.00    -0.000 A 
ATOM     74  CZ  PHE A   9      13.558  11.814  12.333  0.00  0.00    -0.000 A 
ATOM     75  CE1 PHE A   9      14.768  11.694  11.678  0.00  0.00    -0.000 A 
ATOM     76  CD1 PHE A   9      15.933  11.310  12.335  0.00  0.00    -0.004 A 
ENDBRANCH  70  71
ENDBRANCH  58  70
ENDBRANCH  56  58
ENDBRANCH  53  54
ENDBRANCH  50  53
ENDBRANCH  48  49
ENDBRANCH  45  48
ENDBRANCH  43  44
BRANCH  43  77
ATOM     77  CB  ILE A   6      19.322  21.153  13.062  0.00  0.00    +0.027 C 
ATOM     78  CG2 ILE A   6      20.505  20.869  13.976  0.00  0.00    +0.002 C 
BRANCH  77  79
ATOM     79  CG1 ILE A   6      19.743  21.972  11.848  0.00  0.00    +0.002 C 
ATOM     80  CD1 ILE A   6      18.554  22.723  11.282  0.00  0.00    +0.000 C 
ENDBRANCH  77  79
ENDBRANCH  43  77
ENDBRANCH   2  43
TORSDOF 35
REMARK  Name = ../refined-set-2016/3s54/3s54_pocket.pdb
REMARK  229 active torsions:
REMARK  status: ('A' for Active; 'I' for Inactive)
REMARK    1  A    between atoms: _1  and  _3
REMARK    2  A    between atoms: _3  and  _4
REMARK    3  A    between atoms: _3  and  _6
REMARK    4  A    between atoms: _6  and  _7
REMARK    5  A    between atoms: _7  and  _8
REMARK    6  A    between atoms: _8  and  _9
REMARK    7  A    between atoms: _18  and  _20
REMARK    8  A    between atoms: _20  and  _21
REMARK    9  A    between atoms: _20  and  _23
REMARK   10  A    between atoms: _23  and  _24
REMARK   11  A    between atoms: _27  and  _29
REMARK   12  A    between atoms: _29  and  _30
REMARK   13  A    between atoms: _29  and  _32
REMARK   14  A    between atoms: _32  and  _33
REMARK   15  A    between atoms: _36  and  _38
REMARK   16  A    between atoms: _38  and  _39
REMARK   17  A    between atoms: _38  and  _41
REMARK   18  A    between atoms: _41  and  _42
REMARK   19  A    between atoms: _45  and  _47
REMARK   20  A    between atoms: _47  and  _48
REMARK   21  A    between atoms: _47  and  _50
REMARK   22  A    between atoms: _50  and  _51
REMARK   23  A    between atoms: _54  and  _56
REMARK   24  A    between atoms: _56  and  _57
REMARK   25  A    between atoms: _59  and  _61
REMARK   26  A    between atoms: _61  and  _62
REMARK   27  A    between atoms: _65  and  _67
REMARK   28  A    between atoms: _67  and  _68
REMARK   29  A    between atoms: _67  and  _70
REMARK   30  A    between atoms: _70  and  _71
REMARK   31  A    between atoms: _74  and  _76
REMARK   32  A    between atoms: _76  and  _77
REMARK   33  A    between atoms: _76  and  _79
REMARK   34  A    between atoms: _79  and  _80
REMARK   35  A    between atoms: _80  and  _82
REMARK   36  A    between atoms: _83  and  _85
REMARK   37  A    between atoms: _85  and  _86
REMARK   38  A    between atoms: _85  and  _88
REMARK   39  A    between atoms: _88  and  _89
REMARK   40  A    between atoms: _92  and  _94
REMARK   41  A    between atoms: _94  and  _95
REMARK   42  A    between atoms: _94  and  _97
REMARK   43  A    between atoms: _97  and  _98
REMARK   44  A    between atoms: _101  and  _103
REMARK   45  A    between atoms: _103  and  _104
REMARK   46  A    between atoms: _103  and  _106
REMARK   47  A    between atoms: _106  and  _107
REMARK   48  A    between atoms: _107  and  _108
REMARK   49  A    between atoms: _108  and  _109
REMARK   50  A    between atoms: _109  and  _110
REMARK   51  A    between atoms: _114  and  _116
REMARK   52  A    between atoms: _116  and  _117
REMARK   53  A    between atoms: _116  and  _119
REMARK   54  A    between atoms: _119  and  _120
REMARK   55  A    between atoms: _120  and  _121
REMARK   56  A    between atoms: _123  and  _125
REMARK   57  A    between atoms: _125  and  _126
REMARK   58  A    between atoms: _125  and  _128
REMARK   59  A    between atoms: _131  and  _133
REMARK   60  A    between atoms: _133  and  _134
REMARK   61  A    between atoms: _136  and  _138
REMARK   62  A    between atoms: _138  and  _139
REMARK   63  A    between atoms: _141  and  _143
REMARK   64  A    between atoms: _143  and  _144
REMARK   65  A    between atoms: _143  and  _146
REMARK   66  A    between atoms: _146  and  _147
REMARK   67  A    between atoms: _150  and  _152
REMARK   68  A    between atoms: _152  and  _153
REMARK   69  A    between atoms: _155  and  _157
REMARK   70  A    between atoms: _157  and  _158
REMARK   71  A    between atoms: _160  and  _162
REMARK   72  A    between atoms: _162  and  _163
REMARK   73  A    between atoms: _162  and  _165
REMARK   74  A    between atoms: _165  and  _166
REMARK   75  A    between atoms: _172  and  _174
REMARK   76  A    between atoms: _174  and  _175
REMARK   77  A    between atoms: _174  and  _177
REMARK   78  A    between atoms: _177  and  _178
REMARK   79  A    between atoms: _181  and  _183
REMARK   80  A    between atoms: _183  and  _184
REMARK   81  A    between atoms: _183  and  _186
REMARK   82  A    between atoms: _189  and  _191
REMARK   83  A    between atoms: _191  and  _192
REMARK   84  A    between atoms: _191  and  _194
REMARK   85  A    between atoms: _194  and  _195
REMARK   86  A    between atoms: _198  and  _200
REMARK   87  A    between atoms: _200  and  _201
REMARK   88  A    between atoms: _200  and  _203
REMARK   89  A    between atoms: _203  and  _204
REMARK   90  A    between atoms: _208  and  _209
REMARK   91  A    between atoms: _214  and  _216
REMARK   92  A    between atoms: _216  and  _217
REMARK   93  A    between atoms: _216  and  _219
REMARK   94  A    between atoms: _219  and  _220
REMARK   95  A    between atoms: _223  and  _225
REMARK   96  A    between atoms: _225  and  _226
REMARK   97  A    between atoms: _225  and  _228
REMARK   98  A    between atoms: _228  and  _229
REMARK   99  A    between atoms: _234  and  _236
REMARK  100  A    between atoms: _236  and  _237
REMARK  101  A    between atoms: _236  and  _239
REMARK  102  A    between atoms: _239  and  _240
REMARK  103  A    between atoms: _243  and  _245
REMARK  104  A    between atoms: _245  and  _246
REMARK  105  A    between atoms: _245  and  _248
REMARK  106  A    between atoms: _248  and  _249
REMARK  107  A    between atoms: _252  and  _254
REMARK  108  A    between atoms: _254  and  _255
REMARK  109  A    between atoms: _257  and  _259
REMARK  110  A    between atoms: _259  and  _260
REMARK  111  A    between atoms: _259  and  _262
REMARK  112  A    between atoms: _262  and  _263
REMARK  113  A    between atoms: _263  and  _264
REMARK  114  A    between atoms: _264  and  _265
REMARK  115  A    between atoms: _274  and  _276
REMARK  116  A    between atoms: _276  and  _277
REMARK  117  A    between atoms: _276  and  _279
REMARK  118  A    between atoms: _279  and  _280
REMARK  119  A    between atoms: _285  and  _287
REMARK  120  A    between atoms: _287  and  _288
REMARK  121  A    between atoms: _287  and  _290
REMARK  122  A    between atoms: _290  and  _291
REMARK  123  A    between atoms: _291  and  _292
REMARK  124  A    between atoms: _292  and  _293
REMARK  125  A    between atoms: _302  and  _304
REMARK  126  A    between atoms: _304  and  _305
REMARK  127  A    between atoms: _304  and  _307
REMARK  128  A    between atoms: _307  and  _308
REMARK  129  A    between atoms: _311  and  _313
REMARK  130  A    between atoms: _313  and  _314
REMARK  131  A    between atoms: _313  and  _316
REMARK  132  A    between atoms: _316  and  _317
REMARK  133  A    between atoms: _320  and  _322
REMARK  134  A    between atoms: _322  and  _323
REMARK  135  A    between atoms: _322  and  _325
REMARK  136  A    between atoms: _325  and  _326
REMARK  137  A    between atoms: _329  and  _331
REMARK  138  A    between atoms: _331  and  _332
REMARK  139  A    between atoms: _331  and  _334
REMARK  140  A    between atoms: _334  and  _335
REMARK  141  A    between atoms: _338  and  _340
REMARK  142  A    between atoms: _340  and  _341
REMARK  143  A    between atoms: _343  and  _345
REMARK  144  A    between atoms: _345  and  _346
REMARK  145  A    between atoms: _349  and  _351
REMARK  146  A    between atoms: _351  and  _352
REMARK  147  A    between atoms: _351  and  _354
REMARK  148  A    between atoms: _354  and  _355
REMARK  149  A    between atoms: _358  and  _360
REMARK  150  A    between atoms: _360  and  _361
REMARK  151  A    between atoms: _360  and  _363
REMARK  152  A    between atoms: _363  and  _364
REMARK  153  A    between atoms: _364  and  _366
REMARK  154  A    between atoms: _367  and  _369
REMARK  155  A    between atoms: _369  and  _370
REMARK  156  A    between atoms: _369  and  _372
REMARK  157  A    between atoms: _372  and  _373
REMARK  158  A    between atoms: _376  and  _378
REMARK  159  A    between atoms: _378  and  _379
REMARK  160  A    between atoms: _378  and  _381
REMARK  161  A    between atoms: _381  and  _382
REMARK  162  A    between atoms: _385  and  _387
REMARK  163  A    between atoms: _387  and  _388
REMARK  164  A    between atoms: _387  and  _390
REMARK  165  A    between atoms: _390  and  _391
REMARK  166  A    between atoms: _391  and  _392
REMARK  167  A    between atoms: _392  and  _393
REMARK  168  A    between atoms: _393  and  _394
REMARK  169  A    between atoms: _398  and  _400
REMARK  170  A    between atoms: _400  and  _401
REMARK  171  A    between atoms: _400  and  _403
REMARK  172  A    between atoms: _403  and  _404
REMARK  173  A    between atoms: _404  and  _405
REMARK  174  A    between atoms: _407  and  _409
REMARK  175  A    between atoms: _409  and  _410
REMARK  176  A    between atoms: _409  and  _412
REMARK  177  A    between atoms: _415  and  _417
REMARK  178  A    between atoms: _417  and  _418
REMARK  179  A    between atoms: _420  and  _422
REMARK  180  A    between atoms: _422  and  _423
REMARK  181  A    between atoms: _425  and  _427
REMARK  182  A    between atoms: _427  and  _428
REMARK  183  A    between atoms: _427  and  _430
REMARK  184  A    between atoms: _430  and  _431
REMARK  185  A    between atoms: _434  and  _436
REMARK  186  A    between atoms: _436  and  _437
REMARK  187  A    between atoms: _439  and  _441
REMARK  188  A    between atoms: _441  and  _442
REMARK  189  A    between atoms: _444  and  _446
REMARK  190  A    between atoms: _446  and  _447
REMARK  191  A    between atoms: _446  and  _449
REMARK  192  A    between atoms: _449  and  _450
REMARK  193  A    between atoms: _456  and  _458
REMARK  194  A    between atoms: _458  and  _459
REMARK  195  A    between atoms: _458  and  _461
REMARK  196  A    between atoms: _461  and  _462
REMARK  197  A    between atoms: _465  and  _467
REMARK  198  A    between atoms: _467  and  _468
REMARK  199  A    between atoms: _467  and  _470
REMARK  200  A    between atoms: _470  and  _471
REMARK  201  A    between atoms: _474  and  _476
REMARK  202  A    between atoms: _476  and  _477
REMARK  203  A    between atoms: _476  and  _479
REMARK  204  A    between atoms: _479  and  _480
REMARK  205  A    between atoms: _484  and  _485
REMARK  206  A    between atoms: _490  and  _492
REMARK  207  A    between atoms: _492  and  _493
REMARK  208  A    between atoms: _492  and  _495
REMARK  209  A    between atoms: _495  and  _496
REMARK  210  A    between atoms: _499  and  _501
REMARK  211  A    between atoms: _501  and  _502
REMARK  212  A    between atoms: _501  and  _504
REMARK  213  A    between atoms: _504  and  _505
REMARK  214  A    between atoms: _510  and  _512
REMARK  215  A    between atoms: _512  and  _513
REMARK  216  A    between atoms: _512  and  _515
REMARK  217  A    between atoms: _515  and  _516
REMARK  218  A    between atoms: _519  and  _521
REMARK  219  A    between atoms: _521  and  _522
REMARK  220  A    between atoms: _524  and  _526
REMARK  221  A    between atoms: _526  and  _527
REMARK  222  A    between atoms: _526  and  _529
REMARK  223  A    between atoms: _529  and  _530
REMARK  224  A    between atoms: _530  and  _531
REMARK  225  A    between atoms: _531  and  _532
REMARK  226  A    between atoms: _541  and  _543
REMARK  227  A    between atoms: _543  and  _544
REMARK  228  A    between atoms: _543  and  _546
REMARK  229  A    between atoms: _546  and  _547
REMARK                            x       y       z     vdW  Elec       q    Type
REMARK                         _______ _______ _______ _____ _____    ______ ____
ROOT
ATOM      1  CA  LEU A   1      13.304  13.177  27.697  0.00  0.00    +0.133 C 
ENDROOT
BRANCH   1   2
ATOM      2  N   LEU A   1      12.413  14.062  28.455  0.00  0.00    -0.239 NA
ATOM      3  H   LEU A   1      12.262  15.036  28.122  0.00  0.00    +0.142 HD
ENDBRANCH   1   2
BRANCH   1   4
ATOM      4  C   LEU A   1      14.721  13.381  28.216  0.00  0.00    +0.224 C 
ATOM      5  O   LEU A   1      15.130  14.508  28.518  0.00  0.00    -0.287 OA
ENDBRANCH   1   4
BRANCH   1   6
ATOM      6  CB  LEU A   1      13.245  13.491  26.205  0.00  0.00    +0.025 C 
BRANCH   6   7
ATOM      7  CG  LEU A   1      11.851  13.531  25.579  0.00  0.00    +0.002 C 
ATOM      8  CD2 LEU A   1      11.091  12.229  25.759  0.00  0.00    +0.000 C 
ATOM      9  CD1 LEU A   1      11.918  13.881  24.107  0.00  0.00    +0.000 C 
ENDBRANCH   6   7
ENDBRANCH   1   6
TORSDOF 4
REMARK  Name = ../refined-set-2016/3s54/3s54_pocket.pdb
REMARK  229 active torsions:
REMARK  status: ('A' for Active; 'I' for Inactive)
REMARK    1  A    between atoms: _1  and  _3
REMARK    2  A    between atoms: _3  and  _4
REMARK    3  A    between atoms: _3  and  _6
REMARK    4  A    between atoms: _6  and  _7
REMARK    5  A    between atoms: _7  and  _8
REMARK    6  A    between atoms: _8  and  _9
REMARK    7  A    between atoms: _18  and  _20
REMARK    8  A    between atoms: _20  and  _21
REMARK    9  A    between atoms: _20  and  _23
REMARK   10  A    between atoms: _23  and  _24
REMARK   11  A    between atoms: _27  and  _29
REMARK   12  A    between atoms: _29  and  _30
REMARK   13  A    between atoms: _29  and  _32
REMARK   14  A    between atoms: _32  and  _33
REMARK   15  A    between atoms: _36  and  _38
REMARK   16  A    between atoms: _38  and  _39
REMARK   17  A    between atoms: _38  and  _41
REMARK   18  A    between atoms: _41  and  _42
REMARK   19  A    between atoms: _45  and  _47
REMARK   20  A    between atoms: _47  and  _48
REMARK   21  A    between atoms: _47  and  _50
REMARK   22  A    between atoms: _50  and  _51
REMARK   23  A    between atoms: _54  and  _56
REMARK   24  A    between atoms: _56  and  _57
REMARK   25  A    between atoms: _59  and  _61
REMARK   26  A    between atoms: _61  and  _62
REMARK   27  A    between atoms: _65  and  _67
REMARK   28  A    between atoms: _67  and  _68
REMARK   29  A    between atoms: _67  and  _70
REMARK   30  A    between atoms: _70  and  _71
REMARK   31  A    between atoms: _74  and  _76
REMARK   32  A    between atoms: _76  and  _77
REMARK   33  A    between atoms: _76  and  _79
REMARK   34  A    between atoms: _79  and  _80
REMARK   35  A    between atoms: _80  and  _82
REMARK   36  A    between atoms: _83  and  _85
REMARK   37  A    between atoms: _85  and  _86
REMARK   38  A    between atoms: _85  and  _88
REMARK   39  A    between atoms: _88  and  _89
REMARK   40  A    between atoms: _92  and  _94
REMARK   41  A    between atoms: _94  and  _95
REMARK   42  A    between atoms: _94  and  _97
REMARK   43  A    between atoms: _97  and  _98
REMARK   44  A    between atoms: _101  and  _103
REMARK   45  A    between atoms: _103  and  _104
REMARK   46  A    between atoms: _103  and  _106
REMARK   47  A    between atoms: _106  and  _107
REMARK   48  A    between atoms: _107  and  _108
REMARK   49  A    between atoms: _108  and  _109
REMARK   50  A    between atoms: _109  and  _110
REMARK   51  A    between atoms: _114  and  _116
REMARK   52  A    between atoms: _116  and  _117
REMARK   53  A    between atoms: _116  and  _119
REMARK   54  A    between atoms: _119  and  _120
REMARK   55  A    between atoms: _120  and  _121
REMARK   56  A    between atoms: _123  and  _125
REMARK   57  A    between atoms: _125  and  _126
REMARK   58  A    between atoms: _125  and  _128
REMARK   59  A    between atoms: _131  and  _133
REMARK   60  A    between atoms: _133  and  _134
REMARK   61  A    between atoms: _136  and  _138
REMARK   62  A    between atoms: _138  and  _139
REMARK   63  A    between atoms: _141  and  _143
REMARK   64  A    between atoms: _143  and  _144
REMARK   65  A    between atoms: _143  and  _146
REMARK   66  A    between atoms: _146  and  _147
REMARK   67  A    between atoms: _150  and  _152
REMARK   68  A    between atoms: _152  and  _153
REMARK   69  A    between atoms: _155  and  _157
REMARK   70  A    between atoms: _157  and  _158
REMARK   71  A    between atoms: _160  and  _162
REMARK   72  A    between atoms: _162  and  _163
REMARK   73  A    between atoms: _162  and  _165
REMARK   74  A    between atoms: _165  and  _166
REMARK   75  A    between atoms: _172  and  _174
REMARK   76  A    between atoms: _174  and  _175
REMARK   77  A    between atoms: _174  and  _177
REMARK   78  A    between atoms: _177  and  _178
REMARK   79  A    between atoms: _181  and  _183
REMARK   80  A    between atoms: _183  and  _184
REMARK   81  A    between atoms: _183  and  _186
REMARK   82  A    between atoms: _189  and  _191
REMARK   83  A    between atoms: _191  and  _192
REMARK   84  A    between atoms: _191  and  _194
REMARK   85  A    between atoms: _194  and  _195
REMARK   86  A    between atoms: _198  and  _200
REMARK   87  A    between atoms: _200  and  _201
REMARK   88  A    between atoms: _200  and  _203
REMARK   89  A    between atoms: _203  and  _204
REMARK   90  A    between atoms: _208  and  _209
REMARK   91  A    between atoms: _214  and  _216
REMARK   92  A    between atoms: _216  and  _217
REMARK   93  A    between atoms: _216  and  _219
REMARK   94  A    between atoms: _219  and  _220
REMARK   95  A    between atoms: _223  and  _225
REMARK   96  A    between atoms: _225  and  _226
REMARK   97  A    between atoms: _225  and  _228
REMARK   98  A    between atoms: _228  and  _229
REMARK   99  A    between atoms: _234  and  _236
REMARK  100  A    between atoms: _236  and  _237
REMARK  101  A    between atoms: _236  and  _239
REMARK  102  A    between atoms: _239  and  _240
REMARK  103  A    between atoms: _243  and  _245
REMARK  104  A    between atoms: _245  and  _246
REMARK  105  A    between atoms: _245  and  _248
REMARK  106  A    between atoms: _248  and  _249
REMARK  107  A    between atoms: _252  and  _254
REMARK  108  A    between atoms: _254  and  _255
REMARK  109  A    between atoms: _257  and  _259
REMARK  110  A    between atoms: _259  and  _260
REMARK  111  A    between atoms: _259  and  _262
REMARK  112  A    between atoms: _262  and  _263
REMARK  113  A    between atoms: _263  and  _264
REMARK  114  A    between atoms: _264  and  _265
REMARK  115  A    between atoms: _274  and  _276
REMARK  116  A    between atoms: _276  and  _277
REMARK  117  A    between atoms: _276  and  _279
REMARK  118  A    between atoms: _279  and  _280
REMARK  119  A    between atoms: _285  and  _287
REMARK  120  A    between atoms: _287  and  _288
REMARK  121  A    between atoms: _287  and  _290
REMARK  122  A    between atoms: _290  and  _291
REMARK  123  A    between atoms: _291  and  _292
REMARK  124  A    between atoms: _292  and  _293
REMARK  125  A    between atoms: _302  and  _304
REMARK  126  A    between atoms: _304  and  _305
REMARK  127  A    between atoms: _304  and  _307
REMARK  128  A    between atoms: _307  and  _308
REMARK  129  A    between atoms: _311  and  _313
REMARK  130  A    between atoms: _313  and  _314
REMARK  131  A    between atoms: _313  and  _316
REMARK  132  A    between atoms: _316  and  _317
REMARK  133  A    between atoms: _320  and  _322
REMARK  134  A    between atoms: _322  and  _323
REMARK  135  A    between atoms: _322  and  _325
REMARK  136  A    between atoms: _325  and  _326
REMARK  137  A    between atoms: _329  and  _331
REMARK  138  A    between atoms: _331  and  _332
REMARK  139  A    between atoms: _331  and  _334
REMARK  140  A    between atoms: _334  and  _335
REMARK  141  A    between atoms: _338  and  _340
REMARK  142  A    between atoms: _340  and  _341
REMARK  143  A    between atoms: _343  and  _345
REMARK  144  A    between atoms: _345  and  _346
REMARK  145  A    between atoms: _349  and  _351
REMARK  146  A    between atoms: _351  and  _352
REMARK  147  A    between atoms: _351  and  _354
REMARK  148  A    between atoms: _354  and  _355
REMARK  149  A    between atoms: _358  and  _360
REMARK  150  A    between atoms: _360  and  _361
REMARK  151  A    between atoms: _360  and  _363
REMARK  152  A    between atoms: _363  and  _364
REMARK  153  A    between atoms: _364  and  _366
REMARK  154  A    between atoms: _367  and  _369
REMARK  155  A    between atoms: _369  and  _370
REMARK  156  A    between atoms: _369  and  _372
REMARK  157  A    between atoms: _372  and  _373
REMARK  158  A    between atoms: _376  and  _378
REMARK  159  A    between atoms: _378  and  _379
REMARK  160  A    between atoms: _378  and  _381
REMARK  161  A    between atoms: _381  and  _382
REMARK  162  A    between atoms: _385  and  _387
REMARK  163  A    between atoms: _387  and  _388
REMARK  164  A    between atoms: _387  and  _390
REMARK  165  A    between atoms: _390  and  _391
REMARK  166  A    between atoms: _391  and  _392
REMARK  167  A    between atoms: _392  and  _393
REMARK  168  A    between atoms: _393  and  _394
REMARK  169  A    between atoms: _398  and  _400
REMARK  170  A    between atoms: _400  and  _401
REMARK  171  A    between atoms: _400  and  _403
REMARK  172  A    between atoms: _403  and  _404
REMARK  173  A    between atoms: _404  and  _405
REMARK  174  A    between atoms: _407  and  _409
REMARK  175  A    between atoms: _409  and  _410
REMARK  176  A    between atoms: _409  and  _412
REMARK  177  A    between atoms: _415  and  _417
REMARK  178  A    between atoms: _417  and  _418
REMARK  179  A    between atoms: _420  and  _422
REMARK  180  A    between atoms: _422  and  _423
REMARK  181  A    between atoms: _425  and  _427
REMARK  182  A    between atoms: _427  and  _428
REMARK  183  A    between atoms: _427  and  _430
REMARK  184  A    between atoms: _430  and  _431
REMARK  185  A    between atoms: _434  and  _436
REMARK  186  A    between atoms: _436  and  _437
REMARK  187  A    between atoms: _439  and  _441
REMARK  188  A    between atoms: _441  and  _442
REMARK  189  A    between atoms: _444  and  _446
REMARK  190  A    between atoms: _446  and  _447
REMARK  191  A    between atoms: _446  and  _449
REMARK  192  A    between atoms: _449  and  _450
REMARK  193  A    between atoms: _456  and  _458
REMARK  194  A    between atoms: _458  and  _459
REMARK  195  A    between atoms: _458  and  _461
REMARK  196  A    between atoms: _461  and  _462
REMARK  197  A    between atoms: _465  and  _467
REMARK  198  A    between atoms: _467  and  _468
REMARK  199  A    between atoms: _467  and  _470
REMARK  200  A    between atoms: _470  and  _471
REMARK  201  A    between atoms: _474  and  _476
REMARK  202  A    between atoms: _476  and  _477
REMARK  203  A    between atoms: _476  and  _479
REMARK  204  A    between atoms: _479  and  _480
REMARK  205  A    between atoms: _484  and  _485
REMARK  206  A    between atoms: _490  and  _492
REMARK  207  A    between atoms: _492  and  _493
REMARK  208  A    between atoms: _492  and  _495
REMARK  209  A    between atoms: _495  and  _496
REMARK  210  A    between atoms: _499  and  _501
REMARK  211  A    between atoms: _501  and  _502
REMARK  212  A    between atoms: _501  and  _504
REMARK  213  A    between atoms: _504  and  _505
REMARK  214  A    between atoms: _510  and  _512
REMARK  215  A    between atoms: _512  and  _513
REMARK  216  A    between atoms: _512  and  _515
REMARK  217  A    between atoms: _515  and  _516
REMARK  218  A    between atoms: _519  and  _521
REMARK  219  A    between atoms: _521  and  _522
REMARK  220  A    between atoms: _524  and  _526
REMARK  221  A    between atoms: _526  and  _527
REMARK  222  A    between atoms: _526  and  _529
REMARK  223  A    between atoms: _529  and  _530
REMARK  224  A    between atoms: _530  and  _531
REMARK  225  A    between atoms: _531  and  _532
REMARK  226  A    between atoms: _541  and  _543
REMARK  227  A    between atoms: _543  and  _544
REMARK  228  A    between atoms: _543  and  _546
REMARK  229  A    between atoms: _546  and  _547
REMARK                            x       y       z     vdW  Elec       q    Type
REMARK                         _______ _______ _______ _____ _____    ______ ____
ROOT
ATOM      1  CA  ILE A   3      21.857  21.890  25.952  0.00  0.00    +0.149 C 
ENDROOT
BRANCH   1   4
ATOM      2  C   PRO A   2      23.521  20.772  24.534  0.00  0.00    +0.241 C 
ATOM      3  O   PRO A   2      24.441  21.427  25.018  0.00  0.00    -0.273 OA
ATOM      4  N   ILE A   3      22.284  20.918  24.961  0.00  0.00    -0.297 N 
ATOM      5  H   ILE A   3      21.559  20.291  24.559  0.00  0.00    +0.150 HD
BRANCH   2   9
ATOM      6  C   THR A   1      22.336  17.936  23.995  0.00  0.00    +0.244 C 
ATOM      7  O   THR A   1      23.006  17.799  25.029  0.00  0.00    -0.273 OA
ATOM      8  N   PRO A   2      22.678  18.874  23.121  0.00  0.00    -0.272 N 
ATOM      9  CA  PRO A   2      23.790  19.774  23.412  0.00  0.00    +0.152 C 
ATOM     10  CB  PRO A   2      23.971  20.542  22.108  0.00  0.00    +0.031 C 
ATOM     11  CG  PRO A   2      23.080  19.929  21.094  0.00  0.00    +0.024 C 
ATOM     12  CD  PRO A   2      22.040  19.122  21.808  0.00  0.00    +0.094 C 
BRANCH   6  13
ATOM     13  CA  THR A   1      21.134  17.033  23.705  0.00  0.00    +0.172 C 
BRANCH  13  14
ATOM     14  CB  THR A   1      19.849  17.579  24.329  0.00  0.00    +0.135 C 
ATOM     15  CG2 THR A   1      19.872  17.634  25.846  0.00  0.00    +0.034 C 
BRANCH  14  16
ATOM     16  OG1 THR A   1      19.712  18.942  23.901  0.00  0.00    -0.383 OA
ATOM     17  HG1 THR A   1      20.496  19.463  24.207  0.00  0.00    +0.210 HD
ENDBRANCH  14  16
ENDBRANCH  13  14
BRANCH  13  18
ATOM     18  N   THR A   1      21.431  15.703  24.216  0.00  0.00    -0.236 NA
ATOM     19  H   THR A   1      20.968  15.393  25.094  0.00  0.00    +0.142 HD
ENDBRANCH  13  18
ENDBRANCH   6  13
ENDBRANCH   2   9
ENDBRANCH   1   4
BRANCH   1  20
ATOM     20  C   ILE A   3      20.512  21.431  26.494  0.00  0.00    +0.241 C 
ATOM     21  N   ASN A   4      20.271  21.710  27.750  0.00  0.00    -0.297 N 
ATOM     22  H   ASN A   4      21.007  22.145  28.342  0.00  0.00    +0.150 HD
ATOM     23  O   ILE A   3      19.727  20.822  25.775  0.00  0.00    -0.273 OA
BRANCH  21  24
ATOM     24  CA  ASN A   4      18.960  21.404  28.310  0.00  0.00    +0.158 C 
BRANCH  24  25
ATOM     25  C   ASN A   4      17.919  22.312  27.660  0.00  0.00    +0.241 C 
ATOM     26  O   ASN A   4      18.108  23.530  27.622  0.00  0.00    -0.273 OA
ATOM     27  N   ILE A   5      16.828  21.688  27.205  0.00  0.00    -0.298 N 
ATOM     28  H   ILE A   5      16.715  20.662  27.330  0.00  0.00    +0.150 HD
BRANCH  27  29
ATOM     29  CA  ILE A   5      15.796  22.472  26.529  0.00  0.00    +0.137 C 
BRANCH  29  30
ATOM     30  CB  ILE A   5      15.720  22.066  25.064  0.00  0.00    +0.026 C 
ATOM     31  CG2 ILE A   5      14.488  22.549  24.357  0.00  0.00    +0.002 C 
BRANCH  30  32
ATOM     32  CG1 ILE A   5      16.960  22.515  24.263  0.00  0.00    +0.002 C 
ATOM     33  CD1 ILE A   5      17.192  21.475  23.187  0.00  0.00    +0.000 C 
ENDBRANCH  30  32
ENDBRANCH  29  30
BRANCH  29  34
ATOM     34  C   ILE A   5      14.418  22.249  27.158  0.00  0.00    +0.227 C 
ATOM     35  O   ILE A   5      14.043  21.070  27.363  0.00  0.00    -0.286 OA
ENDBRANCH  29  34
ENDBRANCH  27  29
ENDBRANCH  24  25
BRANCH  24  36
ATOM     36  CB  ASN A   4      18.952  21.590  29.812  0.00  0.00    +0.114 C 
BRANCH  36  37
ATOM     37  CG  ASN A   4      19.915  20.699  30.536  0.00  0.00    +0.222 C 
ATOM     38  ND2 ASN A   4      20.485  21.227  31.617  0.00  0.00    -0.329 N 
ATOM     39 HD21 ASN A   4      21.175  20.674  32.164  0.00  0.00    +0.145 HD
ATOM     40 HD22 ASN A   4      20.240  22.193  31.915  0.00  0.00    +0.145 HD
ATOM     41  OD1 ASN A   4      20.150  19.551  30.109  0.00  0.00    -0.275 OA
ENDBRANCH  36  37
ENDBRANCH  24  36
ENDBRANCH  21  24
ENDBRANCH   1  20
BRANCH   1  42
ATOM     42  CB  ILE A   3      21.718  23.320  25.408  0.00  0.00    +0.027 C 
ATOM     43  CG2 ILE A   3      20.609  23.470  24.361  0.00  0.00    +0.002 C 
BRANCH  42  44
ATOM     44  CG1 ILE A   3      21.484  24.417  26.458  0.00  0.00    +0.002 C 
ATOM     45  CD1 ILE A   3      21.920  25.791  25.923  0.00  0.00    +0.000 C 
ENDBRANCH  42  44
ENDBRANCH   1  42
TORSDOF 17
REMARK  Name = ../refined-set-2016/3s54/3s54_pocket.pdb
REMARK  229 active torsions:
REMARK  status: ('A' for Active; 'I' for Inactive)
REMARK    1  A    between atoms: _1  and  _3
REMARK    2  A    between atoms: _3  and  _4
REMARK    3  A    between atoms: _3  and  _6
REMARK    4  A    between atoms: _6  and  _7
REMARK    5  A    between atoms: _7  and  _8
REMARK    6  A    between atoms: _8  and  _9
REMARK    7  A    between atoms: _18  and  _20
REMARK    8  A    between atoms: _20  and  _21
REMARK    9  A    between atoms: _20  and  _23
REMARK   10  A    between atoms: _23  and  _24
REMARK   11  A    between atoms: _27  and  _29
REMARK   12  A    between atoms: _29  and  _30
REMARK   13  A    between atoms: _29  and  _32
REMARK   14  A    between atoms: _32  and  _33
REMARK   15  A    between atoms: _36  and  _38
REMARK   16  A    between atoms: _38  and  _39
REMARK   17  A    between atoms: _38  and  _41
REMARK   18  A    between atoms: _41  and  _42
REMARK   19  A    between atoms: _45  and  _47
REMARK   20  A    between atoms: _47  and  _48
REMARK   21  A    between atoms: _47  and  _50
REMARK   22  A    between atoms: _50  and  _51
REMARK   23  A    between atoms: _54  and  _56
REMARK   24  A    between atoms: _56  and  _57
REMARK   25  A    between atoms: _59  and  _61
REMARK   26  A    between atoms: _61  and  _62
REMARK   27  A    between atoms: _65  and  _67
REMARK   28  A    between atoms: _67  and  _68
REMARK   29  A    between atoms: _67  and  _70
REMARK   30  A    between atoms: _70  and  _71
REMARK   31  A    between atoms: _74  and  _76
REMARK   32  A    between atoms: _76  and  _77
REMARK   33  A    between atoms: _76  and  _79
REMARK   34  A    between atoms: _79  and  _80
REMARK   35  A    between atoms: _80  and  _82
REMARK   36  A    between atoms: _83  and  _85
REMARK   37  A    between atoms: _85  and  _86
REMARK   38  A    between atoms: _85  and  _88
REMARK   39  A    between atoms: _88  and  _89
REMARK   40  A    between atoms: _92  and  _94
REMARK   41  A    between atoms: _94  and  _95
REMARK   42  A    between atoms: _94  and  _97
REMARK   43  A    between atoms: _97  and  _98
REMARK   44  A    between atoms: _101  and  _103
REMARK   45  A    between atoms: _103  and  _104
REMARK   46  A    between atoms: _103  and  _106
REMARK   47  A    between atoms: _106  and  _107
REMARK   48  A    between atoms: _107  and  _108
REMARK   49  A    between atoms: _108  and  _109
REMARK   50  A    between atoms: _109  and  _110
REMARK   51  A    between atoms: _114  and  _116
REMARK   52  A    between atoms: _116  and  _117
REMARK   53  A    between atoms: _116  and  _119
REMARK   54  A    between atoms: _119  and  _120
REMARK   55  A    between atoms: _120  and  _121
REMARK   56  A    between atoms: _123  and  _125
REMARK   57  A    between atoms: _125  and  _126
REMARK   58  A    between atoms: _125  and  _128
REMARK   59  A    between atoms: _131  and  _133
REMARK   60  A    between atoms: _133  and  _134
REMARK   61  A    between atoms: _136  and  _138
REMARK   62  A    between atoms: _138  and  _139
REMARK   63  A    between atoms: _141  and  _143
REMARK   64  A    between atoms: _143  and  _144
REMARK   65  A    between atoms: _143  and  _146
REMARK   66  A    between atoms: _146  and  _147
REMARK   67  A    between atoms: _150  and  _152
REMARK   68  A    between atoms: _152  and  _153
REMARK   69  A    between atoms: _155  and  _157
REMARK   70  A    between atoms: _157  and  _158
REMARK   71  A    between atoms: _160  and  _162
REMARK   72  A    between atoms: _162  and  _163
REMARK   73  A    between atoms: _162  and  _165
REMARK   74  A    between atoms: _165  and  _166
REMARK   75  A    between atoms: _172  and  _174
REMARK   76  A    between atoms: _174  and  _175
REMARK   77  A    between atoms: _174  and  _177
REMARK   78  A    between atoms: _177  and  _178
REMARK   79  A    between atoms: _181  and  _183
REMARK   80  A    between atoms: _183  and  _184
REMARK   81  A    between atoms: _183  and  _186
REMARK   82  A    between atoms: _189  and  _191
REMARK   83  A    between atoms: _191  and  _192
REMARK   84  A    between atoms: _191  and  _194
REMARK   85  A    between atoms: _194  and  _195
REMARK   86  A    between atoms: _198  and  _200
REMARK   87  A    between atoms: _200  and  _201
REMARK   88  A    between atoms: _200  and  _203
REMARK   89  A    between atoms: _203  and  _204
REMARK   90  A    between atoms: _208  and  _209
REMARK   91  A    between atoms: _214  and  _216
REMARK   92  A    between atoms: _216  and  _217
REMARK   93  A    between atoms: _216  and  _219
REMARK   94  A    between atoms: _219  and  _220
REMARK   95  A    between atoms: _223  and  _225
REMARK   96  A    between atoms: _225  and  _226
REMARK   97  A    between atoms: _225  and  _228
REMARK   98  A    between atoms: _228  and  _229
REMARK   99  A    between atoms: _234  and  _236
REMARK  100  A    between atoms: _236  and  _237
REMARK  101  A    between atoms: _236  and  _239
REMARK  102  A    between atoms: _239  and  _240
REMARK  103  A    between atoms: _243  and  _245
REMARK  104  A    between atoms: _245  and  _246
REMARK  105  A    between atoms: _245  and  _248
REMARK  106  A    between atoms: _248  and  _249
REMARK  107  A    between atoms: _252  and  _254
REMARK  108  A    between atoms: _254  and  _255
REMARK  109  A    between atoms: _257  and  _259
REMARK  110  A    between atoms: _259  and  _260
REMARK  111  A    between atoms: _259  and  _262
REMARK  112  A    between atoms: _262  and  _263
REMARK  113  A    between atoms: _263  and  _264
REMARK  114  A    between atoms: _264  and  _265
REMARK  115  A    between atoms: _274  and  _276
REMARK  116  A    between atoms: _276  and  _277
REMARK  117  A    between atoms: _276  and  _279
REMARK  118  A    between atoms: _279  and  _280
REMARK  119  A    between atoms: _285  and  _287
REMARK  120  A    between atoms: _287  and  _288
REMARK  121  A    between atoms: _287  and  _290
REMARK  122  A    between atoms: _290  and  _291
REMARK  123  A    between atoms: _291  and  _292
REMARK  124  A    between atoms: _292  and  _293
REMARK  125  A    between atoms: _302  and  _304
REMARK  126  A    between atoms: _304  and  _305
REMARK  127  A    between atoms: _304  and  _307
REMARK  128  A    between atoms: _307  and  _308
REMARK  129  A    between atoms: _311  and  _313
REMARK  130  A    between atoms: _313  and  _314
REMARK  131  A    between atoms: _313  and  _316
REMARK  132  A    between atoms: _316  and  _317
REMARK  133  A    between atoms: _320  and  _322
REMARK  134  A    between atoms: _322  and  _323
REMARK  135  A    between atoms: _322  and  _325
REMARK  136  A    between atoms: _325  and  _326
REMARK  137  A    between atoms: _329  and  _331
REMARK  138  A    between atoms: _331  and  _332
REMARK  139  A    between atoms: _331  and  _334
REMARK  140  A    between atoms: _334  and  _335
REMARK  141  A    between atoms: _338  and  _340
REMARK  142  A    between atoms: _340  and  _341
REMARK  143  A    between atoms: _343  and  _345
REMARK  144  A    between atoms: _345  and  _346
REMARK  145  A    between atoms: _349  and  _351
REMARK  146  A    between atoms: _351  and  _352
REMARK  147  A    between atoms: _351  and  _354
REMARK  148  A    between atoms: _354  and  _355
REMARK  149  A    between atoms: _358  and  _360
REMARK  150  A    between atoms: _360  and  _361
REMARK  151  A    between atoms: _360  and  _363
REMARK  152  A    between atoms: _363  and  _364
REMARK  153  A    between atoms: _364  and  _366
REMARK  154  A    between atoms: _367  and  _369
REMARK  155  A    between atoms: _369  and  _370
REMARK  156  A    between atoms: _369  and  _372
REMARK  157  A    between atoms: _372  and  _373
REMARK  158  A    between atoms: _376  and  _378
REMARK  159  A    between atoms: _378  and  _379
REMARK  160  A    between atoms: _378  and  _381
REMARK  161  A    between atoms: _381  and  _382
REMARK  162  A    between atoms: _385  and  _387
REMARK  163  A    between atoms: _387  and  _388
REMARK  164  A    between atoms: _387  and  _390
REMARK  165  A    between atoms: _390  and  _391
REMARK  166  A    between atoms: _391  and  _392
REMARK  167  A    between atoms: _392  and  _393
REMARK  168  A    between atoms: _393  and  _394
REMARK  169  A    between atoms: _398  and  _400
REMARK  170  A    between atoms: _400  and  _401
REMARK  171  A    between atoms: _400  and  _403
REMARK  172  A    between atoms: _403  and  _404
REMARK  173  A    between atoms: _404  and  _405
REMARK  174  A    between atoms: _407  and  _409
REMARK  175  A    between atoms: _409  and  _410
REMARK  176  A    between atoms: _409  and  _412
REMARK  177  A    between atoms: _415  and  _417
REMARK  178  A    between atoms: _417  and  _418
REMARK  179  A    between atoms: _420  and  _422
REMARK  180  A    between atoms: _422  and  _423
REMARK  181  A    between atoms: _425  and  _427
REMARK  182  A    between atoms: _427  and  _428
REMARK  183  A    between atoms: _427  and  _430
REMARK  184  A    between atoms: _430  and  _431
REMARK  185  A    between atoms: _434  and  _436
REMARK  186  A    between atoms: _436  and  _437
REMARK  187  A    between atoms: _439  and  _441
REMARK  188  A    between atoms: _441  and  _442
REMARK  189  A    between atoms: _444  and  _446
REMARK  190  A    between atoms: _446  and  _447
REMARK  191  A    between atoms: _446  and  _449
REMARK  192  A    between atoms: _449  and  _450
REMARK  193  A    between atoms: _456  and  _458
REMARK  194  A    between atoms: _458  and  _459
REMARK  195  A    between atoms: _458  and  _461
REMARK  196  A    between atoms: _461  and  _462
REMARK  197  A    between atoms: _465  and  _467
REMARK  198  A    between atoms: _467  and  _468
REMARK  199  A    between atoms: _467  and  _470
REMARK  200  A    between atoms: _470  and  _471
REMARK  201  A    between atoms: _474  and  _476
REMARK  202  A    between atoms: _476  and  _477
REMARK  203  A    between atoms: _476  and  _479
REMARK  204  A    between atoms: _479  and  _480
REMARK  205  A    between atoms: _484  and  _485
REMARK  206  A    between atoms: _490  and  _492
REMARK  207  A    between atoms: _492  and  _493
REMARK  208  A    between atoms: _492  and  _495
REMARK  209  A    between atoms: _495  and  _496
REMARK  210  A    between atoms: _499  and  _501
REMARK  211  A    between atoms: _501  and  _502
REMARK  212  A    between atoms: _501  and  _504
REMARK  213  A    between atoms: _504  and  _505
REMARK  214  A    between atoms: _510  and  _512
REMARK  215  A    between atoms: _512  and  _513
REMARK  216  A    between atoms: _512  and  _515
REMARK  217  A    between atoms: _515  and  _516
REMARK  218  A    between atoms: _519  and  _521
REMARK  219  A    between atoms: _521  and  _522
REMARK  220  A    between atoms: _524  and  _526
REMARK  221  A    between atoms: _526  and  _527
REMARK  222  A    between atoms: _526  and  _529
REMARK  223  A    between atoms: _529  and  _530
REMARK  224  A    between atoms: _530  and  _531
REMARK  225  A    between atoms: _531  and  _532
REMARK  226  A    between atoms: _541  and  _543
REMARK  227  A    between atoms: _543  and  _544
REMARK  228  A    between atoms: _543  and  _546
REMARK  229  A    between atoms: _546  and  _547
REMARK                            x       y       z     vdW  Elec       q    Type
REMARK                         _______ _______ _______ _____ _____    ______ ____
ROOT
ATOM      1  CA  ARG A   2       6.245  23.317  24.445  0.00  0.00    +0.149 C 
ENDROOT
BRANCH   1   4
ATOM      2  C   GLY A   1       8.403  22.815  25.371  0.00  0.00    +0.240 C 
ATOM      3  O   GLY A   1       8.067  23.050  26.527  0.00  0.00    -0.274 OA
ATOM      4  N   ARG A   2       7.599  22.806  24.304  0.00  0.00    -0.297 N 
ATOM      5  H   ARG A   2       7.935  22.441  23.390  0.00  0.00    +0.150 HD
BRANCH   2   6
ATOM      6  CA  GLY A   1       9.839  22.518  25.049  0.00  0.00    +0.169 C 
BRANCH   6   7
ATOM      7  N   GLY A   1      10.699  22.485  26.192  0.00  0.00    -0.236 NA
ATOM      8  H   GLY A   1      10.735  21.602  26.741  0.00  0.00    +0.142 HD
ENDBRANCH   6   7
ENDBRANCH   2   6
ENDBRANCH   1   4
BRANCH   1   9
ATOM      9  C   ARG A   2       5.437  22.495  25.429  0.00  0.00    +0.241 C 
ATOM     10  O   ARG A   2       4.538  23.058  26.058  0.00  0.00    -0.273 OA
ATOM     11  N   ASN A   3       5.704  21.209  25.593  0.00  0.00    -0.298 N 
ATOM     12  H   ASN A   3       6.471  20.764  25.050  0.00  0.00    +0.150 HD
BRANCH  11  13
ATOM     13  CA  ASN A   3       4.927  20.420  26.530  0.00  0.00    +0.146 C 
BRANCH  13  14
ATOM     14  C   ASN A   3       4.948  21.015  27.940  0.00  0.00    +0.227 C 
ATOM     15  O   ASN A   3       3.934  20.916  28.669  0.00  0.00    -0.286 OA
ENDBRANCH  13  14
BRANCH  13  16
ATOM     16  CB  ASN A   3       5.391  18.961  26.545  0.00  0.00    +0.112 C 
BRANCH  16  17
ATOM     17  CG  ASN A   3       6.676  18.742  27.260  0.00  0.00    +0.222 C 
ATOM     18  ND2 ASN A   3       6.678  17.824  28.229  0.00  0.00    -0.329 N 
ATOM     19 HD21 ASN A   3       7.556  17.614  28.745  0.00  0.00    +0.145 HD
ATOM     20 HD22 ASN A   3       5.801  17.318  28.468  0.00  0.00    +0.145 HD
ATOM     21  OD1 ASN A   3       7.666  19.388  26.911  0.00  0.00    -0.275 OA
ENDBRANCH  16  17
ENDBRANCH  13  16
ENDBRANCH  11  13
ENDBRANCH   1   9
BRANCH   1  22
ATOM     22  CB  ARG A   2       5.579  23.381  23.068  0.00  0.00    +0.033 C 
BRANCH  22  23
ATOM     23  CG  ARG A   2       6.191  24.352  22.118  0.00  0.00    +0.045 C 
BRANCH  23  24
ATOM     24  CD  ARG A   2       5.403  24.550  20.836  0.00  0.00    +0.174 C 
BRANCH  24  25
ATOM     25  NE  ARG A   2       5.389  23.325  20.058  0.00  0.00    -0.265 N 
ATOM     26  CZ  ARG A   2       4.441  22.405  20.006  0.00  0.00    +0.342 C 
ATOM     27  NH2 ARG A   2       3.301  22.525  20.688  0.00  0.00    -0.292 N 
ATOM     28 HH21 ARG A   2       3.137  23.362  21.284  0.00  0.00    +0.255 HD
ATOM     29 HH22 ARG A   2       2.576  21.782  20.624  0.00  0.00    +0.255 HD
ATOM     30  NH1 ARG A   2       4.589  21.324  19.250  0.00  0.00    -0.292 N 
ATOM     31 HH11 ARG A   2       3.837  20.606  19.216  0.00  0.00    +0.255 HD
ATOM     32 HH12 ARG A   2       5.457  21.195  18.692  0.00  0.00    +0.255 HD
ATOM     33  HE  ARG A   2       6.228  23.149  19.469  0.00  0.00    +0.259 HD
ENDBRANCH  24  25
ENDBRANCH  23  24
ENDBRANCH  22  23
ENDBRANCH   1  22
TORSDOF 12
REMARK  Name = ../refined-set-2016/3s54/3s54_pocket.pdb
REMARK  229 active torsions:
REMARK  status: ('A' for Active; 'I' for Inactive)
REMARK    1  A    between atoms: _1  and  _3
REMARK    2  A    between atoms: _3  and  _4
REMARK    3  A    between atoms: _3  and  _6
REMARK    4  A    between atoms: _6  and  _7
REMARK    5  A    between atoms: _7  and  _8
REMARK    6  A    between atoms: _8  and  _9
REMARK    7  A    between atoms: _18  and  _20
REMARK    8  A    between atoms: _20  and  _21
REMARK    9  A    between atoms: _20  and  _23
REMARK   10  A    between atoms: _23  and  _24
REMARK   11  A    between atoms: _27  and  _29
REMARK   12  A    between atoms: _29  and  _30
REMARK   13  A    between atoms: _29  and  _32
REMARK   14  A    between atoms: _32  and  _33
REMARK   15  A    between atoms: _36  and  _38
REMARK   16  A    between atoms: _38  and  _39
REMARK   17  A    between atoms: _38  and  _41
REMARK   18  A    between atoms: _41  and  _42
REMARK   19  A    between atoms: _45  and  _47
REMARK   20  A    between atoms: _47  and  _48
REMARK   21  A    between atoms: _47  and  _50
REMARK   22  A    between atoms: _50  and  _51
REMARK   23  A    between atoms: _54  and  _56
REMARK   24  A    between atoms: _56  and  _57
REMARK   25  A    between atoms: _59  and  _61
REMARK   26  A    between atoms: _61  and  _62
REMARK   27  A    between atoms: _65  and  _67
REMARK   28  A    between atoms: _67  and  _68
REMARK   29  A    between atoms: _67  and  _70
REMARK   30  A    between atoms: _70  and  _71
REMARK   31  A    between atoms: _74  and  _76
REMARK   32  A    between atoms: _76  and  _77
REMARK   33  A    between atoms: _76  and  _79
REMARK   34  A    between atoms: _79  and  _80
REMARK   35  A    between atoms: _80  and  _82
REMARK   36  A    between atoms: _83  and  _85
REMARK   37  A    between atoms: _85  and  _86
REMARK   38  A    between atoms: _85  and  _88
REMARK   39  A    between atoms: _88  and  _89
REMARK   40  A    between atoms: _92  and  _94
REMARK   41  A    between atoms: _94  and  _95
REMARK   42  A    between atoms: _94  and  _97
REMARK   43  A    between atoms: _97  and  _98
REMARK   44  A    between atoms: _101  and  _103
REMARK   45  A    between atoms: _103  and  _104
REMARK   46  A    between atoms: _103  and  _106
REMARK   47  A    between atoms: _106  and  _107
REMARK   48  A    between atoms: _107  and  _108
REMARK   49  A    between atoms: _108  and  _109
REMARK   50  A    between atoms: _109  and  _110
REMARK   51  A    between atoms: _114  and  _116
REMARK   52  A    between atoms: _116  and  _117
REMARK   53  A    between atoms: _116  and  _119
REMARK   54  A    between atoms: _119  and  _120
REMARK   55  A    between atoms: _120  and  _121
REMARK   56  A    between atoms: _123  and  _125
REMARK   57  A    between atoms: _125  and  _126
REMARK   58  A    between atoms: _125  and  _128
REMARK   59  A    between atoms: _131  and  _133
REMARK   60  A    between atoms: _133  and  _134
REMARK   61  A    between atoms: _136  and  _138
REMARK   62  A    between atoms: _138  and  _139
REMARK   63  A    between atoms: _141  and  _143
REMARK   64  A    between atoms: _143  and  _144
REMARK   65  A    between atoms: _143  and  _146
REMARK   66  A    between atoms: _146  and  _147
REMARK   67  A    between atoms: _150  and  _152
REMARK   68  A    between atoms: _152  and  _153
REMARK   69  A    between atoms: _155  and  _157
REMARK   70  A    between atoms: _157  and  _158
REMARK   71  A    between atoms: _160  and  _162
REMARK   72  A    between atoms: _162  and  _163
REMARK   73  A    between atoms: _162  and  _165
REMARK   74  A    between atoms: _165  and  _166
REMARK   75  A    between atoms: _172  and  _174
REMARK   76  A    between atoms: _174  and  _175
REMARK   77  A    between atoms: _174  and  _177
REMARK   78  A    between atoms: _177  and  _178
REMARK   79  A    between atoms: _181  and  _183
REMARK   80  A    between atoms: _183  and  _184
REMARK   81  A    between atoms: _183  and  _186
REMARK   82  A    between atoms: _189  and  _191
REMARK   83  A    between atoms: _191  and  _192
REMARK   84  A    between atoms: _191  and  _194
REMARK   85  A    between atoms: _194  and  _195
REMARK   86  A    between atoms: _198  and  _200
REMARK   87  A    between atoms: _200  and  _201
REMARK   88  A    between atoms: _200  and  _203
REMARK   89  A    between atoms: _203  and  _204
REMARK   90  A    between atoms: _208  and  _209
REMARK   91  A    between atoms: _214  and  _216
REMARK   92  A    between atoms: _216  and  _217
REMARK   93  A    between atoms: _216  and  _219
REMARK   94  A    between atoms: _219  and  _220
REMARK   95  A    between atoms: _223  and  _225
REMARK   96  A    between atoms: _225  and  _226
REMARK   97  A    between atoms: _225  and  _228
REMARK   98  A    between atoms: _228  and  _229
REMARK   99  A    between atoms: _234  and  _236
REMARK  100  A    between atoms: _236  and  _237
REMARK  101  A    between atoms: _236  and  _239
REMARK  102  A    between atoms: _239  and  _240
REMARK  103  A    between atoms: _243  and  _245
REMARK  104  A    between atoms: _245  and  _246
REMARK  105  A    between atoms: _245  and  _248
REMARK  106  A    between atoms: _248  and  _249
REMARK  107  A    between atoms: _252  and  _254
REMARK  108  A    between atoms: _254  and  _255
REMARK  109  A    between atoms: _257  and  _259
REMARK  110  A    between atoms: _259  and  _260
REMARK  111  A    between atoms: _259  and  _262
REMARK  112  A    between atoms: _262  and  _263
REMARK  113  A    between atoms: _263  and  _264
REMARK  114  A    between atoms: _264  and  _265
REMARK  115  A    between atoms: _274  and  _276
REMARK  116  A    between atoms: _276  and  _277
REMARK  117  A    between atoms: _276  and  _279
REMARK  118  A    between atoms: _279  and  _280
REMARK  119  A    between atoms: _285  and  _287
REMARK  120  A    between atoms: _287  and  _288
REMARK  121  A    between atoms: _287  and  _290
REMARK  122  A    between atoms: _290  and  _291
REMARK  123  A    between atoms: _291  and  _292
REMARK  124  A    between atoms: _292  and  _293
REMARK  125  A    between atoms: _302  and  _304
REMARK  126  A    between atoms: _304  and  _305
REMARK  127  A    between atoms: _304  and  _307
REMARK  128  A    between atoms: _307  and  _308
REMARK  129  A    between atoms: _311  and  _313
REMARK  130  A    between atoms: _313  and  _314
REMARK  131  A    between atoms: _313  and  _316
REMARK  132  A    between atoms: _316  and  _317
REMARK  133  A    between atoms: _320  and  _322
REMARK  134  A    between atoms: _322  and  _323
REMARK  135  A    between atoms: _322  and  _325
REMARK  136  A    between atoms: _325  and  _326
REMARK  137  A    between atoms: _329  and  _331
REMARK  138  A    between atoms: _331  and  _332
REMARK  139  A    between atoms: _331  and  _334
REMARK  140  A    between atoms: _334  and  _335
REMARK  141  A    between atoms: _338  and  _340
REMARK  142  A    between atoms: _340  and  _341
REMARK  143  A    between atoms: _343  and  _345
REMARK  144  A    between atoms: _345  and  _346
REMARK  145  A    between atoms: _349  and  _351
REMARK  146  A    between atoms: _351  and  _352
REMARK  147  A    between atoms: _351  and  _354
REMARK  148  A    between atoms: _354  and  _355
REMARK  149  A    between atoms: _358  and  _360
REMARK  150  A    between atoms: _360  and  _361
REMARK  151  A    between atoms: _360  and  _363
REMARK  152  A    between atoms: _363  and  _364
REMARK  153  A    between atoms: _364  and  _366
REMARK  154  A    between atoms: _367  and  _369
REMARK  155  A    between atoms: _369  and  _370
REMARK  156  A    between atoms: _369  and  _372
REMARK  157  A    between atoms: _372  and  _373
REMARK  158  A    between atoms: _376  and  _378
REMARK  159  A    between atoms: _378  and  _379
REMARK  160  A    between atoms: _378  and  _381
REMARK  161  A    between atoms: _381  and  _382
REMARK  162  A    between atoms: _385  and  _387
REMARK  163  A    between atoms: _387  and  _388
REMARK  164  A    between atoms: _387  and  _390
REMARK  165  A    between atoms: _390  and  _391
REMARK  166  A    between atoms: _391  and  _392
REMARK  167  A    between atoms: _392  and  _393
REMARK  168  A    between atoms: _393  and  _394
REMARK  169  A    between atoms: _398  and  _400
REMARK  170  A    between atoms: _400  and  _401
REMARK  171  A    between atoms: _400  and  _403
REMARK  172  A    between atoms: _403  and  _404
REMARK  173  A    between atoms: _404  and  _405
REMARK  174  A    between atoms: _407  and  _409
REMARK  175  A    between atoms: _409  and  _410
REMARK  176  A    between atoms: _409  and  _412
REMARK  177  A    between atoms: _415  and  _417
REMARK  178  A    between atoms: _417  and  _418
REMARK  179  A    between atoms: _420  and  _422
REMARK  180  A    between atoms: _422  and  _423
REMARK  181  A    between atoms: _425  and  _427
REMARK  182  A    between atoms: _427  and  _428
REMARK  183  A    between atoms: _427  and  _430
REMARK  184  A    between atoms: _430  and  _431
REMARK  185  A    between atoms: _434  and  _436
REMARK  186  A    between atoms: _436  and  _437
REMARK  187  A    between atoms: _439  and  _441
REMARK  188  A    between atoms: _441  and  _442
REMARK  189  A    between atoms: _444  and  _446
REMARK  190  A    between atoms: _446  and  _447
REMARK  191  A    between atoms: _446  and  _449
REMARK  192  A    between atoms: _449  and  _450
REMARK  193  A    between atoms: _456  and  _458
REMARK  194  A    between atoms: _458  and  _459
REMARK  195  A    between atoms: _458  and  _461
REMARK  196  A    between atoms: _461  and  _462
REMARK  197  A    between atoms: _465  and  _467
REMARK  198  A    between atoms: _467  and  _468
REMARK  199  A    between atoms: _467  and  _470
REMARK  200  A    between atoms: _470  and  _471
REMARK  201  A    between atoms: _474  and  _476
REMARK  202  A    between atoms: _476  and  _477
REMARK  203  A    between atoms: _476  and  _479
REMARK  204  A    between atoms: _479  and  _480
REMARK  205  A    between atoms: _484  and  _485
REMARK  206  A    between atoms: _490  and  _492
REMARK  207  A    between atoms: _492  and  _493
REMARK  208  A    between atoms: _492  and  _495
REMARK  209  A    between atoms: _495  and  _496
REMARK  210  A    between atoms: _499  and  _501
REMARK  211  A    between atoms: _501  and  _502
REMARK  212  A    between atoms: _501  and  _504
REMARK  213  A    between atoms: _504  and  _505
REMARK  214  A    between atoms: _510  and  _512
REMARK  215  A    between atoms: _512  and  _513
REMARK  216  A    between atoms: _512  and  _515
REMARK  217  A    between atoms: _515  and  _516
REMARK  218  A    between atoms: _519  and  _521
REMARK  219  A    between atoms: _521  and  _522
REMARK  220  A    between atoms: _524  and  _526
REMARK  221  A    between atoms: _526  and  _527
REMARK  222  A    between atoms: _526  and  _529
REMARK  223  A    between atoms: _529  and  _530
REMARK  224  A    between atoms: _530  and  _531
REMARK  225  A    between atoms: _531  and  _532
REMARK  226  A    between atoms: _541  and  _543
REMARK  227  A    between atoms: _543  and  _544
REMARK  228  A    between atoms: _543  and  _546
REMARK  229  A    between atoms: _546  and  _547
REMARK                            x       y       z     vdW  Elec       q    Type
REMARK                         _______ _______ _______ _____ _____    ______ ____
ROOT
ATOM      1  O   HOH     1      20.125  28.712  21.434  0.00  0.00    +0.000 OA
ENDROOT
TORSDOF 0
REMARK  Name = ../refined-set-2016/3s54/3s54_pocket.pdb
REMARK  229 active torsions:
REMARK  status: ('A' for Active; 'I' for Inactive)
REMARK    1  A    between atoms: _1  and  _3
REMARK    2  A    between atoms: _3  and  _4
REMARK    3  A    between atoms: _3  and  _6
REMARK    4  A    between atoms: _6  and  _7
REMARK    5  A    between atoms: _7  and  _8
REMARK    6  A    between atoms: _8  and  _9
REMARK    7  A    between atoms: _18  and  _20
REMARK    8  A    between atoms: _20  and  _21
REMARK    9  A    between atoms: _20  and  _23
REMARK   10  A    between atoms: _23  and  _24
REMARK   11  A    between atoms: _27  and  _29
REMARK   12  A    between atoms: _29  and  _30
REMARK   13  A    between atoms: _29  and  _32
REMARK   14  A    between atoms: _32  and  _33
REMARK   15  A    between atoms: _36  and  _38
REMARK   16  A    between atoms: _38  and  _39
REMARK   17  A    between atoms: _38  and  _41
REMARK   18  A    between atoms: _41  and  _42
REMARK   19  A    between atoms: _45  and  _47
REMARK   20  A    between atoms: _47  and  _48
REMARK   21  A    between atoms: _47  and  _50
REMARK   22  A    between atoms: _50  and  _51
REMARK   23  A    between atoms: _54  and  _56
REMARK   24  A    between atoms: _56  and  _57
REMARK   25  A    between atoms: _59  and  _61
REMARK   26  A    between atoms: _61  and  _62
REMARK   27  A    between atoms: _65  and  _67
REMARK   28  A    between atoms: _67  and  _68
REMARK   29  A    between atoms: _67  and  _70
REMARK   30  A    between atoms: _70  and  _71
REMARK   31  A    between atoms: _74  and  _76
REMARK   32  A    between atoms: _76  and  _77
REMARK   33  A    between atoms: _76  and  _79
REMARK   34  A    between atoms: _79  and  _80
REMARK   35  A    between atoms: _80  and  _82
REMARK   36  A    between atoms: _83  and  _85
REMARK   37  A    between atoms: _85  and  _86
REMARK   38  A    between atoms: _85  and  _88
REMARK   39  A    between atoms: _88  and  _89
REMARK   40  A    between atoms: _92  and  _94
REMARK   41  A    between atoms: _94  and  _95
REMARK   42  A    between atoms: _94  and  _97
REMARK   43  A    between atoms: _97  and  _98
REMARK   44  A    between atoms: _101  and  _103
REMARK   45  A    between atoms: _103  and  _104
REMARK   46  A    between atoms: _103  and  _106
REMARK   47  A    between atoms: _106  and  _107
REMARK   48  A    between atoms: _107  and  _108
REMARK   49  A    between atoms: _108  and  _109
REMARK   50  A    between atoms: _109  and  _110
REMARK   51  A    between atoms: _114  and  _116
REMARK   52  A    between atoms: _116  and  _117
REMARK   53  A    between atoms: _116  and  _119
REMARK   54  A    between atoms: _119  and  _120
REMARK   55  A    between atoms: _120  and  _121
REMARK   56  A    between atoms: _123  and  _125
REMARK   57  A    between atoms: _125  and  _126
REMARK   58  A    between atoms: _125  and  _128
REMARK   59  A    between atoms: _131  and  _133
REMARK   60  A    between atoms: _133  and  _134
REMARK   61  A    between atoms: _136  and  _138
REMARK   62  A    between atoms: _138  and  _139
REMARK   63  A    between atoms: _141  and  _143
REMARK   64  A    between atoms: _143  and  _144
REMARK   65  A    between atoms: _143  and  _146
REMARK   66  A    between atoms: _146  and  _147
REMARK   67  A    between atoms: _150  and  _152
REMARK   68  A    between atoms: _152  and  _153
REMARK   69  A    between atoms: _155  and  _157
REMARK   70  A    between atoms: _157  and  _158
REMARK   71  A    between atoms: _160  and  _162
REMARK   72  A    between atoms: _162  and  _163
REMARK   73  A    between atoms: _162  and  _165
REMARK   74  A    between atoms: _165  and  _166
REMARK   75  A    between atoms: _172  and  _174
REMARK   76  A    between atoms: _174  and  _175
REMARK   77  A    between atoms: _174  and  _177
REMARK   78  A    between atoms: _177  and  _178
REMARK   79  A    between atoms: _181  and  _183
REMARK   80  A    between atoms: _183  and  _184
REMARK   81  A    between atoms: _183  and  _186
REMARK   82  A    between atoms: _189  and  _191
REMARK   83  A    between atoms: _191  and  _192
REMARK   84  A    between atoms: _191  and  _194
REMARK   85  A    between atoms: _194  and  _195
REMARK   86  A    between atoms: _198  and  _200
REMARK   87  A    between atoms: _200  and  _201
REMARK   88  A    between atoms: _200  and  _203
REMARK   89  A    between atoms: _203  and  _204
REMARK   90  A    between atoms: _208  and  _209
REMARK   91  A    between atoms: _214  and  _216
REMARK   92  A    between atoms: _216  and  _217
REMARK   93  A    between atoms: _216  and  _219
REMARK   94  A    between atoms: _219  and  _220
REMARK   95  A    between atoms: _223  and  _225
REMARK   96  A    between atoms: _225  and  _226
REMARK   97  A    between atoms: _225  and  _228
REMARK   98  A    between atoms: _228  and  _229
REMARK   99  A    between atoms: _234  and  _236
REMARK  100  A    between atoms: _236  and  _237
REMARK  101  A    between atoms: _236  and  _239
REMARK  102  A    between atoms: _239  and  _240
REMARK  103  A    between atoms: _243  and  _245
REMARK  104  A    between atoms: _245  and  _246
REMARK  105  A    between atoms: _245  and  _248
REMARK  106  A    between atoms: _248  and  _249
REMARK  107  A    between atoms: _252  and  _254
REMARK  108  A    between atoms: _254  and  _255
REMARK  109  A    between atoms: _257  and  _259
REMARK  110  A    between atoms: _259  and  _260
REMARK  111  A    between atoms: _259  and  _262
REMARK  112  A    between atoms: _262  and  _263
REMARK  113  A    between atoms: _263  and  _264
REMARK  114  A    between atoms: _264  and  _265
REMARK  115  A    between atoms: _274  and  _276
REMARK  116  A    between atoms: _276  and  _277
REMARK  117  A    between atoms: _276  and  _279
REMARK  118  A    between atoms: _279  and  _280
REMARK  119  A    between atoms: _285  and  _287
REMARK  120  A    between atoms: _287  and  _288
REMARK  121  A    between atoms: _287  and  _290
REMARK  122  A    between atoms: _290  and  _291
REMARK  123  A    between atoms: _291  and  _292
REMARK  124  A    between atoms: _292  and  _293
REMARK  125  A    between atoms: _302  and  _304
REMARK  126  A    between atoms: _304  and  _305
REMARK  127  A    between atoms: _304  and  _307
REMARK  128  A    between atoms: _307  and  _308
REMARK  129  A    between atoms: _311  and  _313
REMARK  130  A    between atoms: _313  and  _314
REMARK  131  A    between atoms: _313  and  _316
REMARK  132  A    between atoms: _316  and  _317
REMARK  133  A    between atoms: _320  and  _322
REMARK  134  A    between atoms: _322  and  _323
REMARK  135  A    between atoms: _322  and  _325
REMARK  136  A    between atoms: _325  and  _326
REMARK  137  A    between atoms: _329  and  _331
REMARK  138  A    between atoms: _331  and  _332
REMARK  139  A    between atoms: _331  and  _334
REMARK  140  A    between atoms: _334  and  _335
REMARK  141  A    between atoms: _338  and  _340
REMARK  142  A    between atoms: _340  and  _341
REMARK  143  A    between atoms: _343  and  _345
REMARK  144  A    between atoms: _345  and  _346
REMARK  145  A    between atoms: _349  and  _351
REMARK  146  A    between atoms: _351  and  _352
REMARK  147  A    between atoms: _351  and  _354
REMARK  148  A    between atoms: _354  and  _355
REMARK  149  A    between atoms: _358  and  _360
REMARK  150  A    between atoms: _360  and  _361
REMARK  151  A    between atoms: _360  and  _363
REMARK  152  A    between atoms: _363  and  _364
REMARK  153  A    between atoms: _364  and  _366
REMARK  154  A    between atoms: _367  and  _369
REMARK  155  A    between atoms: _369  and  _370
REMARK  156  A    between atoms: _369  and  _372
REMARK  157  A    between atoms: _372  and  _373
REMARK  158  A    between atoms: _376  and  _378
REMARK  159  A    between atoms: _378  and  _379
REMARK  160  A    between atoms: _378  and  _381
REMARK  161  A    between atoms: _381  and  _382
REMARK  162  A    between atoms: _385  and  _387
REMARK  163  A    between atoms: _387  and  _388
REMARK  164  A    between atoms: _387  and  _390
REMARK  165  A    between atoms: _390  and  _391
REMARK  166  A    between atoms: _391  and  _392
REMARK  167  A    between atoms: _392  and  _393
REMARK  168  A    between atoms: _393  and  _394
REMARK  169  A    between atoms: _398  and  _400
REMARK  170  A    between atoms: _400  and  _401
REMARK  171  A    between atoms: _400  and  _403
REMARK  172  A    between atoms: _403  and  _404
REMARK  173  A    between atoms: _404  and  _405
REMARK  174  A    between atoms: _407  and  _409
REMARK  175  A    between atoms: _409  and  _410
REMARK  176  A    between atoms: _409  and  _412
REMARK  177  A    between atoms: _415  and  _417
REMARK  178  A    between atoms: _417  and  _418
REMARK  179  A    between atoms: _420  and  _422
REMARK  180  A    between atoms: _422  and  _423
REMARK  181  A    between atoms: _425  and  _427
REMARK  182  A    between atoms: _427  and  _428
REMARK  183  A    between atoms: _427  and  _430
REMARK  184  A    between atoms: _430  and  _431
REMARK  185  A    between atoms: _434  and  _436
REMARK  186  A    between atoms: _436  and  _437
REMARK  187  A    between atoms: _439  and  _441
REMARK  188  A    between atoms: _441  and  _442
REMARK  189  A    between atoms: _444  and  _446
REMARK  190  A    between atoms: _446  and  _447
REMARK  191  A    between atoms: _446  and  _449
REMARK  192  A    between atoms: _449  and  _450
REMARK  193  A    between atoms: _456  and  _458
REMARK  194  A    between atoms: _458  and  _459
REMARK  195  A    between atoms: _458  and  _461
REMARK  196  A    between atoms: _461  and  _462
REMARK  197  A    between atoms: _465  and  _467
REMARK  198  A    between atoms: _467  and  _468
REMARK  199  A    between atoms: _467  and  _470
REMARK  200  A    between atoms: _470  and  _471
REMARK  201  A    between atoms: _474  and  _476
REMARK  202  A    between atoms: _476  and  _477
REMARK  203  A    between atoms: _476  and  _479
REMARK  204  A    between atoms: _479  and  _480
REMARK  205  A    between atoms: _484  and  _485
REMARK  206  A    between atoms: _490  and  _492
REMARK  207  A    between atoms: _492  and  _493
REMARK  208  A    between atoms: _492  and  _495
REMARK  209  A    between atoms: _495  and  _496
REMARK  210  A    between atoms: _499  and  _501
REMARK  211  A    between atoms: _501  and  _502
REMARK  212  A    between atoms: _501  and  _504
REMARK  213  A    between atoms: _504  and  _505
REMARK  214  A    between atoms: _510  and  _512
REMARK  215  A    between atoms: _512  and  _513
REMARK  216  A    between atoms: _512  and  _515
REMARK  217  A    between atoms: _515  and  _516
REMARK  218  A    between atoms: _519  and  _521
REMARK  219  A    between atoms: _521  and  _522
REMARK  220  A    between atoms: _524  and  _526
REMARK  221  A    between atoms: _526  and  _527
REMARK  222  A    between atoms: _526  and  _529
REMARK  223  A    between atoms: _529  and  _530
REMARK  224  A    between atoms: _530  and  _531
REMARK  225  A    between atoms: _531  and  _532
REMARK  226  A    between atoms: _541  and  _543
REMARK  227  A    between atoms: _543  and  _544
REMARK  228  A    between atoms: _543  and  _546
REMARK  229  A    between atoms: _546  and  _547
REMARK                            x       y       z     vdW  Elec       q    Type
REMARK                         _______ _______ _______ _____ _____    ______ ____
ROOT
ATOM      1  O   HOH     1      18.322  30.721  21.754  0.00  0.00    +0.000 OA
ENDROOT
TORSDOF 0
REMARK  Name = ../refined-set-2016/3s54/3s54_pocket.pdb
REMARK  229 active torsions:
REMARK  status: ('A' for Active; 'I' for Inactive)
REMARK    1  A    between atoms: _1  and  _3
REMARK    2  A    between atoms: _3  and  _4
REMARK    3  A    between atoms: _3  and  _6
REMARK    4  A    between atoms: _6  and  _7
REMARK    5  A    between atoms: _7  and  _8
REMARK    6  A    between atoms: _8  and  _9
REMARK    7  A    between atoms: _18  and  _20
REMARK    8  A    between atoms: _20  and  _21
REMARK    9  A    between atoms: _20  and  _23
REMARK   10  A    between atoms: _23  and  _24
REMARK   11  A    between atoms: _27  and  _29
REMARK   12  A    between atoms: _29  and  _30
REMARK   13  A    between atoms: _29  and  _32
REMARK   14  A    between atoms: _32  and  _33
REMARK   15  A    between atoms: _36  and  _38
REMARK   16  A    between atoms: _38  and  _39
REMARK   17  A    between atoms: _38  and  _41
REMARK   18  A    between atoms: _41  and  _42
REMARK   19  A    between atoms: _45  and  _47
REMARK   20  A    between atoms: _47  and  _48
REMARK   21  A    between atoms: _47  and  _50
REMARK   22  A    between atoms: _50  and  _51
REMARK   23  A    between atoms: _54  and  _56
REMARK   24  A    between atoms: _56  and  _57
REMARK   25  A    between atoms: _59  and  _61
REMARK   26  A    between atoms: _61  and  _62
REMARK   27  A    between atoms: _65  and  _67
REMARK   28  A    between atoms: _67  and  _68
REMARK   29  A    between atoms: _67  and  _70
REMARK   30  A    between atoms: _70  and  _71
REMARK   31  A    between atoms: _74  and  _76
REMARK   32  A    between atoms: _76  and  _77
REMARK   33  A    between atoms: _76  and  _79
REMARK   34  A    between atoms: _79  and  _80
REMARK   35  A    between atoms: _80  and  _82
REMARK   36  A    between atoms: _83  and  _85
REMARK   37  A    between atoms: _85  and  _86
REMARK   38  A    between atoms: _85  and  _88
REMARK   39  A    between atoms: _88  and  _89
REMARK   40  A    between atoms: _92  and  _94
REMARK   41  A    between atoms: _94  and  _95
REMARK   42  A    between atoms: _94  and  _97
REMARK   43  A    between atoms: _97  and  _98
REMARK   44  A    between atoms: _101  and  _103
REMARK   45  A    between atoms: _103  and  _104
REMARK   46  A    between atoms: _103  and  _106
REMARK   47  A    between atoms: _106  and  _107
REMARK   48  A    between atoms: _107  and  _108
REMARK   49  A    between atoms: _108  and  _109
REMARK   50  A    between atoms: _109  and  _110
REMARK   51  A    between atoms: _114  and  _116
REMARK   52  A    between atoms: _116  and  _117
REMARK   53  A    between atoms: _116  and  _119
REMARK   54  A    between atoms: _119  and  _120
REMARK   55  A    between atoms: _120  and  _121
REMARK   56  A    between atoms: _123  and  _125
REMARK   57  A    between atoms: _125  and  _126
REMARK   58  A    between atoms: _125  and  _128
REMARK   59  A    between atoms: _131  and  _133
REMARK   60  A    between atoms: _133  and  _134
REMARK   61  A    between atoms: _136  and  _138
REMARK   62  A    between atoms: _138  and  _139
REMARK   63  A    between atoms: _141  and  _143
REMARK   64  A    between atoms: _143  and  _144
REMARK   65  A    between atoms: _143  and  _146
REMARK   66  A    between atoms: _146  and  _147
REMARK   67  A    between atoms: _150  and  _152
REMARK   68  A    between atoms: _152  and  _153
REMARK   69  A    between atoms: _155  and  _157
REMARK   70  A    between atoms: _157  and  _158
REMARK   71  A    between atoms: _160  and  _162
REMARK   72  A    between atoms: _162  and  _163
REMARK   73  A    between atoms: _162  and  _165
REMARK   74  A    between atoms: _165  and  _166
REMARK   75  A    between atoms: _172  and  _174
REMARK   76  A    between atoms: _174  and  _175
REMARK   77  A    between atoms: _174  and  _177
REMARK   78  A    between atoms: _177  and  _178
REMARK   79  A    between atoms: _181  and  _183
REMARK   80  A    between atoms: _183  and  _184
REMARK   81  A    between atoms: _183  and  _186
REMARK   82  A    between atoms: _189  and  _191
REMARK   83  A    between atoms: _191  and  _192
REMARK   84  A    between atoms: _191  and  _194
REMARK   85  A    between atoms: _194  and  _195
REMARK   86  A    between atoms: _198  and  _200
REMARK   87  A    between atoms: _200  and  _201
REMARK   88  A    between atoms: _200  and  _203
REMARK   89  A    between atoms: _203  and  _204
REMARK   90  A    between atoms: _208  and  _209
REMARK   91  A    between atoms: _214  and  _216
REMARK   92  A    between atoms: _216  and  _217
REMARK   93  A    between atoms: _216  and  _219
REMARK   94  A    between atoms: _219  and  _220
REMARK   95  A    between atoms: _223  and  _225
REMARK   96  A    between atoms: _225  and  _226
REMARK   97  A    between atoms: _225  and  _228
REMARK   98  A    between atoms: _228  and  _229
REMARK   99  A    between atoms: _234  and  _236
REMARK  100  A    between atoms: _236  and  _237
REMARK  101  A    between atoms: _236  and  _239
REMARK  102  A    between atoms: _239  and  _240
REMARK  103  A    between atoms: _243  and  _245
REMARK  104  A    between atoms: _245  and  _246
REMARK  105  A    between atoms: _245  and  _248
REMARK  106  A    between atoms: _248  and  _249
REMARK  107  A    between atoms: _252  and  _254
REMARK  108  A    between atoms: _254  and  _255
REMARK  109  A    between atoms: _257  and  _259
REMARK  110  A    between atoms: _259  and  _260
REMARK  111  A    between atoms: _259  and  _262
REMARK  112  A    between atoms: _262  and  _263
REMARK  113  A    between atoms: _263  and  _264
REMARK  114  A    between atoms: _264  and  _265
REMARK  115  A    between atoms: _274  and  _276
REMARK  116  A    between atoms: _276  and  _277
REMARK  117  A    between atoms: _276  and  _279
REMARK  118  A    between atoms: _279  and  _280
REMARK  119  A    between atoms: _285  and  _287
REMARK  120  A    between atoms: _287  and  _288
REMARK  121  A    between atoms: _287  and  _290
REMARK  122  A    between atoms: _290  and  _291
REMARK  123  A    between atoms: _291  and  _292
REMARK  124  A    between atoms: _292  and  _293
REMARK  125  A    between atoms: _302  and  _304
REMARK  126  A    between atoms: _304  and  _305
REMARK  127  A    between atoms: _304  and  _307
REMARK  128  A    between atoms: _307  and  _308
REMARK  129  A    between atoms: _311  and  _313
REMARK  130  A    between atoms: _313  and  _314
REMARK  131  A    between atoms: _313  and  _316
REMARK  132  A    between atoms: _316  and  _317
REMARK  133  A    between atoms: _320  and  _322
REMARK  134  A    between atoms: _322  and  _323
REMARK  135  A    between atoms: _322  and  _325
REMARK  136  A    between atoms: _325  and  _326
REMARK  137  A    between atoms: _329  and  _331
REMARK  138  A    between atoms: _331  and  _332
REMARK  139  A    between atoms: _331  and  _334
REMARK  140  A    between atoms: _334  and  _335
REMARK  141  A    between atoms: _338  and  _340
REMARK  142  A    between atoms: _340  and  _341
REMARK  143  A    between atoms: _343  and  _345
REMARK  144  A    between atoms: _345  and  _346
REMARK  145  A    between atoms: _349  and  _351
REMARK  146  A    between atoms: _351  and  _352
REMARK  147  A    between atoms: _351  and  _354
REMARK  148  A    between atoms: _354  and  _355
REMARK  149  A    between atoms: _358  and  _360
REMARK  150  A    between atoms: _360  and  _361
REMARK  151  A    between atoms: _360  and  _363
REMARK  152  A    between atoms: _363  and  _364
REMARK  153  A    between atoms: _364  and  _366
REMARK  154  A    between atoms: _367  and  _369
REMARK  155  A    between atoms: _369  and  _370
REMARK  156  A    between atoms: _369  and  _372
REMARK  157  A    between atoms: _372  and  _373
REMARK  158  A    between atoms: _376  and  _378
REMARK  159  A    between atoms: _378  and  _379
REMARK  160  A    between atoms: _378  and  _381
REMARK  161  A    between atoms: _381  and  _382
REMARK  162  A    between atoms: _385  and  _387
REMARK  163  A    between atoms: _387  and  _388
REMARK  164  A    between atoms: _387  and  _390
REMARK  165  A    between atoms: _390  and  _391
REMARK  166  A    between atoms: _391  and  _392
REMARK  167  A    between atoms: _392  and  _393
REMARK  168  A    between atoms: _393  and  _394
REMARK  169  A    between atoms: _398  and  _400
REMARK  170  A    between atoms: _400  and  _401
REMARK  171  A    between atoms: _400  and  _403
REMARK  172  A    between atoms: _403  and  _404
REMARK  173  A    between atoms: _404  and  _405
REMARK  174  A    between atoms: _407  and  _409
REMARK  175  A    between atoms: _409  and  _410
REMARK  176  A    between atoms: _409  and  _412
REMARK  177  A    between atoms: _415  and  _417
REMARK  178  A    between atoms: _417  and  _418
REMARK  179  A    between atoms: _420  and  _422
REMARK  180  A    between atoms: _422  and  _423
REMARK  181  A    between atoms: _425  and  _427
REMARK  182  A    between atoms: _427  and  _428
REMARK  183  A    between atoms: _427  and  _430
REMARK  184  A    between atoms: _430  and  _431
REMARK  185  A    between atoms: _434  and  _436
REMARK  186  A    between atoms: _436  and  _437
REMARK  187  A    between atoms: _439  and  _441
REMARK  188  A    between atoms: _441  and  _442
REMARK  189  A    between atoms: _444  and  _446
REMARK  190  A    between atoms: _446  and  _447
REMARK  191  A    between atoms: _446  and  _449
REMARK  192  A    between atoms: _449  and  _450
REMARK  193  A    between atoms: _456  and  _458
REMARK  194  A    between atoms: _458  and  _459
REMARK  195  A    between atoms: _458  and  _461
REMARK  196  A    between atoms: _461  and  _462
REMARK  197  A    between atoms: _465  and  _467
REMARK  198  A    between atoms: _467  and  _468
REMARK  199  A    between atoms: _467  and  _470
REMARK  200  A    between atoms: _470  and  _471
REMARK  201  A    between atoms: _474  and  _476
REMARK  202  A    between atoms: _476  and  _477
REMARK  203  A    between atoms: _476  and  _479
REMARK  204  A    between atoms: _479  and  _480
REMARK  205  A    between atoms: _484  and  _485
REMARK  206  A    between atoms: _490  and  _492
REMARK  207  A    between atoms: _492  and  _493
REMARK  208  A    between atoms: _492  and  _495
REMARK  209  A    between atoms: _495  and  _496
REMARK  210  A    between atoms: _499  and  _501
REMARK  211  A    between atoms: _501  and  _502
REMARK  212  A    between atoms: _501  and  _504
REMARK  213  A    between atoms: _504  and  _505
REMARK  214  A    between atoms: _510  and  _512
REMARK  215  A    between atoms: _512  and  _513
REMARK  216  A    between atoms: _512  and  _515
REMARK  217  A    between atoms: _515  and  _516
REMARK  218  A    between atoms: _519  and  _521
REMARK  219  A    between atoms: _521  and  _522
REMARK  220  A    between atoms: _524  and  _526
REMARK  221  A    between atoms: _526  and  _527
REMARK  222  A    between atoms: _526  and  _529
REMARK  223  A    between atoms: _529  and  _530
REMARK  224  A    between atoms: _530  and  _531
REMARK  225  A    between atoms: _531  and  _532
REMARK  226  A    between atoms: _541  and  _543
REMARK  227  A    between atoms: _543  and  _544
REMARK  228  A    between atoms: _543  and  _546
REMARK  229  A    between atoms: _546  and  _547
REMARK                            x       y       z     vdW  Elec       q    Type
REMARK                         _______ _______ _______ _____ _____    ______ ____
ROOT
ATOM      1  O   HOH     1      25.654  26.050  15.853  0.00  0.00    +0.000 OA
ENDROOT
TORSDOF 0
REMARK  Name = ../refined-set-2016/3s54/3s54_pocket.pdb
REMARK  229 active torsions:
REMARK  status: ('A' for Active; 'I' for Inactive)
REMARK    1  A    between atoms: _1  and  _3
REMARK    2  A    between atoms: _3  and  _4
REMARK    3  A    between atoms: _3  and  _6
REMARK    4  A    between atoms: _6  and  _7
REMARK    5  A    between atoms: _7  and  _8
REMARK    6  A    between atoms: _8  and  _9
REMARK    7  A    between atoms: _18  and  _20
REMARK    8  A    between atoms: _20  and  _21
REMARK    9  A    between atoms: _20  and  _23
REMARK   10  A    between atoms: _23  and  _24
REMARK   11  A    between atoms: _27  and  _29
REMARK   12  A    between atoms: _29  and  _30
REMARK   13  A    between atoms: _29  and  _32
REMARK   14  A    between atoms: _32  and  _33
REMARK   15  A    between atoms: _36  and  _38
REMARK   16  A    between atoms: _38  and  _39
REMARK   17  A    between atoms: _38  and  _41
REMARK   18  A    between atoms: _41  and  _42
REMARK   19  A    between atoms: _45  and  _47
REMARK   20  A    between atoms: _47  and  _48
REMARK   21  A    between atoms: _47  and  _50
REMARK   22  A    between atoms: _50  and  _51
REMARK   23  A    between atoms: _54  and  _56
REMARK   24  A    between atoms: _56  and  _57
REMARK   25  A    between atoms: _59  and  _61
REMARK   26  A    between atoms: _61  and  _62
REMARK   27  A    between atoms: _65  and  _67
REMARK   28  A    between atoms: _67  and  _68
REMARK   29  A    between atoms: _67  and  _70
REMARK   30  A    between atoms: _70  and  _71
REMARK   31  A    between atoms: _74  and  _76
REMARK   32  A    between atoms: _76  and  _77
REMARK   33  A    between atoms: _76  and  _79
REMARK   34  A    between atoms: _79  and  _80
REMARK   35  A    between atoms: _80  and  _82
REMARK   36  A    between atoms: _83  and  _85
REMARK   37  A    between atoms: _85  and  _86
REMARK   38  A    between atoms: _85  and  _88
REMARK   39  A    between atoms: _88  and  _89
REMARK   40  A    between atoms: _92  and  _94
REMARK   41  A    between atoms: _94  and  _95
REMARK   42  A    between atoms: _94  and  _97
REMARK   43  A    between atoms: _97  and  _98
REMARK   44  A    between atoms: _101  and  _103
REMARK   45  A    between atoms: _103  and  _104
REMARK   46  A    between atoms: _103  and  _106
REMARK   47  A    between atoms: _106  and  _107
REMARK   48  A    between atoms: _107  and  _108
REMARK   49  A    between atoms: _108  and  _109
REMARK   50  A    between atoms: _109  and  _110
REMARK   51  A    between atoms: _114  and  _116
REMARK   52  A    between atoms: _116  and  _117
REMARK   53  A    between atoms: _116  and  _119
REMARK   54  A    between atoms: _119  and  _120
REMARK   55  A    between atoms: _120  and  _121
REMARK   56  A    between atoms: _123  and  _125
REMARK   57  A    between atoms: _125  and  _126
REMARK   58  A    between atoms: _125  and  _128
REMARK   59  A    between atoms: _131  and  _133
REMARK   60  A    between atoms: _133  and  _134
REMARK   61  A    between atoms: _136  and  _138
REMARK   62  A    between atoms: _138  and  _139
REMARK   63  A    between atoms: _141  and  _143
REMARK   64  A    between atoms: _143  and  _144
REMARK   65  A    between atoms: _143  and  _146
REMARK   66  A    between atoms: _146  and  _147
REMARK   67  A    between atoms: _150  and  _152
REMARK   68  A    between atoms: _152  and  _153
REMARK   69  A    between atoms: _155  and  _157
REMARK   70  A    between atoms: _157  and  _158
REMARK   71  A    between atoms: _160  and  _162
REMARK   72  A    between atoms: _162  and  _163
REMARK   73  A    between atoms: _162  and  _165
REMARK   74  A    between atoms: _165  and  _166
REMARK   75  A    between atoms: _172  and  _174
REMARK   76  A    between atoms: _174  and  _175
REMARK   77  A    between atoms: _174  and  _177
REMARK   78  A    between atoms: _177  and  _178
REMARK   79  A    between atoms: _181  and  _183
REMARK   80  A    between atoms: _183  and  _184
REMARK   81  A    between atoms: _183  and  _186
REMARK   82  A    between atoms: _189  and  _191
REMARK   83  A    between atoms: _191  and  _192
REMARK   84  A    between atoms: _191  and  _194
REMARK   85  A    between atoms: _194  and  _195
REMARK   86  A    between atoms: _198  and  _200
REMARK   87  A    between atoms: _200  and  _201
REMARK   88  A    between atoms: _200  and  _203
REMARK   89  A    between atoms: _203  and  _204
REMARK   90  A    between atoms: _208  and  _209
REMARK   91  A    between atoms: _214  and  _216
REMARK   92  A    between atoms: _216  and  _217
REMARK   93  A    between atoms: _216  and  _219
REMARK   94  A    between atoms: _219  and  _220
REMARK   95  A    between atoms: _223  and  _225
REMARK   96  A    between atoms: _225  and  _226
REMARK   97  A    between atoms: _225  and  _228
REMARK   98  A    between atoms: _228  and  _229
REMARK   99  A    between atoms: _234  and  _236
REMARK  100  A    between atoms: _236  and  _237
REMARK  101  A    between atoms: _236  and  _239
REMARK  102  A    between atoms: _239  and  _240
REMARK  103  A    between atoms: _243  and  _245
REMARK  104  A    between atoms: _245  and  _246
REMARK  105  A    between atoms: _245  and  _248
REMARK  106  A    between atoms: _248  and  _249
REMARK  107  A    between atoms: _252  and  _254
REMARK  108  A    between atoms: _254  and  _255
REMARK  109  A    between atoms: _257  and  _259
REMARK  110  A    between atoms: _259  and  _260
REMARK  111  A    between atoms: _259  and  _262
REMARK  112  A    between atoms: _262  and  _263
REMARK  113  A    between atoms: _263  and  _264
REMARK  114  A    between atoms: _264  and  _265
REMARK  115  A    between atoms: _274  and  _276
REMARK  116  A    between atoms: _276  and  _277
REMARK  117  A    between atoms: _276  and  _279
REMARK  118  A    between atoms: _279  and  _280
REMARK  119  A    between atoms: _285  and  _287
REMARK  120  A    between atoms: _287  and  _288
REMARK  121  A    between atoms: _287  and  _290
REMARK  122  A    between atoms: _290  and  _291
REMARK  123  A    between atoms: _291  and  _292
REMARK  124  A    between atoms: _292  and  _293
REMARK  125  A    between atoms: _302  and  _304
REMARK  126  A    between atoms: _304  and  _305
REMARK  127  A    between atoms: _304  and  _307
REMARK  128  A    between atoms: _307  and  _308
REMARK  129  A    between atoms: _311  and  _313
REMARK  130  A    between atoms: _313  and  _314
REMARK  131  A    between atoms: _313  and  _316
REMARK  132  A    between atoms: _316  and  _317
REMARK  133  A    between atoms: _320  and  _322
REMARK  134  A    between atoms: _322  and  _323
REMARK  135  A    between atoms: _322  and  _325
REMARK  136  A    between atoms: _325  and  _326
REMARK  137  A    between atoms: _329  and  _331
REMARK  138  A    between atoms: _331  and  _332
REMARK  139  A    between atoms: _331  and  _334
REMARK  140  A    between atoms: _334  and  _335
REMARK  141  A    between atoms: _338  and  _340
REMARK  142  A    between atoms: _340  and  _341
REMARK  143  A    between atoms: _343  and  _345
REMARK  144  A    between atoms: _345  and  _346
REMARK  145  A    between atoms: _349  and  _351
REMARK  146  A    between atoms: _351  and  _352
REMARK  147  A    between atoms: _351  and  _354
REMARK  148  A    between atoms: _354  and  _355
REMARK  149  A    between atoms: _358  and  _360
REMARK  150  A    between atoms: _360  and  _361
REMARK  151  A    between atoms: _360  and  _363
REMARK  152  A    between atoms: _363  and  _364
REMARK  153  A    between atoms: _364  and  _366
REMARK  154  A    between atoms: _367  and  _369
REMARK  155  A    between atoms: _369  and  _370
REMARK  156  A    between atoms: _369  and  _372
REMARK  157  A    between atoms: _372  and  _373
REMARK  158  A    between atoms: _376  and  _378
REMARK  159  A    between atoms: _378  and  _379
REMARK  160  A    between atoms: _378  and  _381
REMARK  161  A    between atoms: _381  and  _382
REMARK  162  A    between atoms: _385  and  _387
REMARK  163  A    between atoms: _387  and  _388
REMARK  164  A    between atoms: _387  and  _390
REMARK  165  A    between atoms: _390  and  _391
REMARK  166  A    between atoms: _391  and  _392
REMARK  167  A    between atoms: _392  and  _393
REMARK  168  A    between atoms: _393  and  _394
REMARK  169  A    between atoms: _398  and  _400
REMARK  170  A    between atoms: _400  and  _401
REMARK  171  A    between atoms: _400  and  _403
REMARK  172  A    between atoms: _403  and  _404
REMARK  173  A    between atoms: _404  and  _405
REMARK  174  A    between atoms: _407  and  _409
REMARK  175  A    between atoms: _409  and  _410
REMARK  176  A    between atoms: _409  and  _412
REMARK  177  A    between atoms: _415  and  _417
REMARK  178  A    between atoms: _417  and  _418
REMARK  179  A    between atoms: _420  and  _422
REMARK  180  A    between atoms: _422  and  _423
REMARK  181  A    between atoms: _425  and  _427
REMARK  182  A    between atoms: _427  and  _428
REMARK  183  A    between atoms: _427  and  _430
REMARK  184  A    between atoms: _430  and  _431
REMARK  185  A    between atoms: _434  and  _436
REMARK  186  A    between atoms: _436  and  _437
REMARK  187  A    between atoms: _439  and  _441
REMARK  188  A    between atoms: _441  and  _442
REMARK  189  A    between atoms: _444  and  _446
REMARK  190  A    between atoms: _446  and  _447
REMARK  191  A    between atoms: _446  and  _449
REMARK  192  A    between atoms: _449  and  _450
REMARK  193  A    between atoms: _456  and  _458
REMARK  194  A    between atoms: _458  and  _459
REMARK  195  A    between atoms: _458  and  _461
REMARK  196  A    between atoms: _461  and  _462
REMARK  197  A    between atoms: _465  and  _467
REMARK  198  A    between atoms: _467  and  _468
REMARK  199  A    between atoms: _467  and  _470
REMARK  200  A    between atoms: _470  and  _471
REMARK  201  A    between atoms: _474  and  _476
REMARK  202  A    between atoms: _476  and  _477
REMARK  203  A    between atoms: _476  and  _479
REMARK  204  A    between atoms: _479  and  _480
REMARK  205  A    between atoms: _484  and  _485
REMARK  206  A    between atoms: _490  and  _492
REMARK  207  A    between atoms: _492  and  _493
REMARK  208  A    between atoms: _492  and  _495
REMARK  209  A    between atoms: _495  and  _496
REMARK  210  A    between atoms: _499  and  _501
REMARK  211  A    between atoms: _501  and  _502
REMARK  212  A    between atoms: _501  and  _504
REMARK  213  A    between atoms: _504  and  _505
REMARK  214  A    between atoms: _510  and  _512
REMARK  215  A    between atoms: _512  and  _513
REMARK  216  A    between atoms: _512  and  _515
REMARK  217  A    between atoms: _515  and  _516
REMARK  218  A    between atoms: _519  and  _521
REMARK  219  A    between atoms: _521  and  _522
REMARK  220  A    between atoms: _524  and  _526
REMARK  221  A    between atoms: _526  and  _527
REMARK  222  A    between atoms: _526  and  _529
REMARK  223  A    between atoms: _529  and  _530
REMARK  224  A    between atoms: _530  and  _531
REMARK  225  A    between atoms: _531  and  _532
REMARK  226  A    between atoms: _541  and  _543
REMARK  227  A    between atoms: _543  and  _544
REMARK  228  A    between atoms: _543  and  _546
REMARK  229  A    between atoms: _546  and  _547
REMARK                            x       y       z     vdW  Elec       q    Type
REMARK                         _______ _______ _______ _____ _____    ______ ____
ROOT
ATOM      1  O   HOH     1      21.211  35.619  17.698  0.00  0.00    +0.000 OA
ENDROOT
TORSDOF 0
REMARK  Name = ../refined-set-2016/3s54/3s54_pocket.pdb
REMARK  229 active torsions:
REMARK  status: ('A' for Active; 'I' for Inactive)
REMARK    1  A    between atoms: _1  and  _3
REMARK    2  A    between atoms: _3  and  _4
REMARK    3  A    between atoms: _3  and  _6
REMARK    4  A    between atoms: _6  and  _7
REMARK    5  A    between atoms: _7  and  _8
REMARK    6  A    between atoms: _8  and  _9
REMARK    7  A    between atoms: _18  and  _20
REMARK    8  A    between atoms: _20  and  _21
REMARK    9  A    between atoms: _20  and  _23
REMARK   10  A    between atoms: _23  and  _24
REMARK   11  A    between atoms: _27  and  _29
REMARK   12  A    between atoms: _29  and  _30
REMARK   13  A    between atoms: _29  and  _32
REMARK   14  A    between atoms: _32  and  _33
REMARK   15  A    between atoms: _36  and  _38
REMARK   16  A    between atoms: _38  and  _39
REMARK   17  A    between atoms: _38  and  _41
REMARK   18  A    between atoms: _41  and  _42
REMARK   19  A    between atoms: _45  and  _47
REMARK   20  A    between atoms: _47  and  _48
REMARK   21  A    between atoms: _47  and  _50
REMARK   22  A    between atoms: _50  and  _51
REMARK   23  A    between atoms: _54  and  _56
REMARK   24  A    between atoms: _56  and  _57
REMARK   25  A    between atoms: _59  and  _61
REMARK   26  A    between atoms: _61  and  _62
REMARK   27  A    between atoms: _65  and  _67
REMARK   28  A    between atoms: _67  and  _68
REMARK   29  A    between atoms: _67  and  _70
REMARK   30  A    between atoms: _70  and  _71
REMARK   31  A    between atoms: _74  and  _76
REMARK   32  A    between atoms: _76  and  _77
REMARK   33  A    between atoms: _76  and  _79
REMARK   34  A    between atoms: _79  and  _80
REMARK   35  A    between atoms: _80  and  _82
REMARK   36  A    between atoms: _83  and  _85
REMARK   37  A    between atoms: _85  and  _86
REMARK   38  A    between atoms: _85  and  _88
REMARK   39  A    between atoms: _88  and  _89
REMARK   40  A    between atoms: _92  and  _94
REMARK   41  A    between atoms: _94  and  _95
REMARK   42  A    between atoms: _94  and  _97
REMARK   43  A    between atoms: _97  and  _98
REMARK   44  A    between atoms: _101  and  _103
REMARK   45  A    between atoms: _103  and  _104
REMARK   46  A    between atoms: _103  and  _106
REMARK   47  A    between atoms: _106  and  _107
REMARK   48  A    between atoms: _107  and  _108
REMARK   49  A    between atoms: _108  and  _109
REMARK   50  A    between atoms: _109  and  _110
REMARK   51  A    between atoms: _114  and  _116
REMARK   52  A    between atoms: _116  and  _117
REMARK   53  A    between atoms: _116  and  _119
REMARK   54  A    between atoms: _119  and  _120
REMARK   55  A    between atoms: _120  and  _121
REMARK   56  A    between atoms: _123  and  _125
REMARK   57  A    between atoms: _125  and  _126
REMARK   58  A    between atoms: _125  and  _128
REMARK   59  A    between atoms: _131  and  _133
REMARK   60  A    between atoms: _133  and  _134
REMARK   61  A    between atoms: _136  and  _138
REMARK   62  A    between atoms: _138  and  _139
REMARK   63  A    between atoms: _141  and  _143
REMARK   64  A    between atoms: _143  and  _144
REMARK   65  A    between atoms: _143  and  _146
REMARK   66  A    between atoms: _146  and  _147
REMARK   67  A    between atoms: _150  and  _152
REMARK   68  A    between atoms: _152  and  _153
REMARK   69  A    between atoms: _155  and  _157
REMARK   70  A    between atoms: _157  and  _158
REMARK   71  A    between atoms: _160  and  _162
REMARK   72  A    between atoms: _162  and  _163
REMARK   73  A    between atoms: _162  and  _165
REMARK   74  A    between atoms: _165  and  _166
REMARK   75  A    between atoms: _172  and  _174
REMARK   76  A    between atoms: _174  and  _175
REMARK   77  A    between atoms: _174  and  _177
REMARK   78  A    between atoms: _177  and  _178
REMARK   79  A    between atoms: _181  and  _183
REMARK   80  A    between atoms: _183  and  _184
REMARK   81  A    between atoms: _183  and  _186
REMARK   82  A    between atoms: _189  and  _191
REMARK   83  A    between atoms: _191  and  _192
REMARK   84  A    between atoms: _191  and  _194
REMARK   85  A    between atoms: _194  and  _195
REMARK   86  A    between atoms: _198  and  _200
REMARK   87  A    between atoms: _200  and  _201
REMARK   88  A    between atoms: _200  and  _203
REMARK   89  A    between atoms: _203  and  _204
REMARK   90  A    between atoms: _208  and  _209
REMARK   91  A    between atoms: _214  and  _216
REMARK   92  A    between atoms: _216  and  _217
REMARK   93  A    between atoms: _216  and  _219
REMARK   94  A    between atoms: _219  and  _220
REMARK   95  A    between atoms: _223  and  _225
REMARK   96  A    between atoms: _225  and  _226
REMARK   97  A    between atoms: _225  and  _228
REMARK   98  A    between atoms: _228  and  _229
REMARK   99  A    between atoms: _234  and  _236
REMARK  100  A    between atoms: _236  and  _237
REMARK  101  A    between atoms: _236  and  _239
REMARK  102  A    between atoms: _239  and  _240
REMARK  103  A    between atoms: _243  and  _245
REMARK  104  A    between atoms: _245  and  _246
REMARK  105  A    between atoms: _245  and  _248
REMARK  106  A    between atoms: _248  and  _249
REMARK  107  A    between atoms: _252  and  _254
REMARK  108  A    between atoms: _254  and  _255
REMARK  109  A    between atoms: _257  and  _259
REMARK  110  A    between atoms: _259  and  _260
REMARK  111  A    between atoms: _259  and  _262
REMARK  112  A    between atoms: _262  and  _263
REMARK  113  A    between atoms: _263  and  _264
REMARK  114  A    between atoms: _264  and  _265
REMARK  115  A    between atoms: _274  and  _276
REMARK  116  A    between atoms: _276  and  _277
REMARK  117  A    between atoms: _276  and  _279
REMARK  118  A    between atoms: _279  and  _280
REMARK  119  A    between atoms: _285  and  _287
REMARK  120  A    between atoms: _287  and  _288
REMARK  121  A    between atoms: _287  and  _290
REMARK  122  A    between atoms: _290  and  _291
REMARK  123  A    between atoms: _291  and  _292
REMARK  124  A    between atoms: _292  and  _293
REMARK  125  A    between atoms: _302  and  _304
REMARK  126  A    between atoms: _304  and  _305
REMARK  127  A    between atoms: _304  and  _307
REMARK  128  A    between atoms: _307  and  _308
REMARK  129  A    between atoms: _311  and  _313
REMARK  130  A    between atoms: _313  and  _314
REMARK  131  A    between atoms: _313  and  _316
REMARK  132  A    between atoms: _316  and  _317
REMARK  133  A    between atoms: _320  and  _322
REMARK  134  A    between atoms: _322  and  _323
REMARK  135  A    between atoms: _322  and  _325
REMARK  136  A    between atoms: _325  and  _326
REMARK  137  A    between atoms: _329  and  _331
REMARK  138  A    between atoms: _331  and  _332
REMARK  139  A    between atoms: _331  and  _334
REMARK  140  A    between atoms: _334  and  _335
REMARK  141  A    between atoms: _338  and  _340
REMARK  142  A    between atoms: _340  and  _341
REMARK  143  A    between atoms: _343  and  _345
REMARK  144  A    between atoms: _345  and  _346
REMARK  145  A    between atoms: _349  and  _351
REMARK  146  A    between atoms: _351  and  _352
REMARK  147  A    between atoms: _351  and  _354
REMARK  148  A    between atoms: _354  and  _355
REMARK  149  A    between atoms: _358  and  _360
REMARK  150  A    between atoms: _360  and  _361
REMARK  151  A    between atoms: _360  and  _363
REMARK  152  A    between atoms: _363  and  _364
REMARK  153  A    between atoms: _364  and  _366
REMARK  154  A    between atoms: _367  and  _369
REMARK  155  A    between atoms: _369  and  _370
REMARK  156  A    between atoms: _369  and  _372
REMARK  157  A    between atoms: _372  and  _373
REMARK  158  A    between atoms: _376  and  _378
REMARK  159  A    between atoms: _378  and  _379
REMARK  160  A    between atoms: _378  and  _381
REMARK  161  A    between atoms: _381  and  _382
REMARK  162  A    between atoms: _385  and  _387
REMARK  163  A    between atoms: _387  and  _388
REMARK  164  A    between atoms: _387  and  _390
REMARK  165  A    between atoms: _390  and  _391
REMARK  166  A    between atoms: _391  and  _392
REMARK  167  A    between atoms: _392  and  _393
REMARK  168  A    between atoms: _393  and  _394
REMARK  169  A    between atoms: _398  and  _400
REMARK  170  A    between atoms: _400  and  _401
REMARK  171  A    between atoms: _400  and  _403
REMARK  172  A    between atoms: _403  and  _404
REMARK  173  A    between atoms: _404  and  _405
REMARK  174  A    between atoms: _407  and  _409
REMARK  175  A    between atoms: _409  and  _410
REMARK  176  A    between atoms: _409  and  _412
REMARK  177  A    between atoms: _415  and  _417
REMARK  178  A    between atoms: _417  and  _418
REMARK  179  A    between atoms: _420  and  _422
REMARK  180  A    between atoms: _422  and  _423
REMARK  181  A    between atoms: _425  and  _427
REMARK  182  A    between atoms: _427  and  _428
REMARK  183  A    between atoms: _427  and  _430
REMARK  184  A    between atoms: _430  and  _431
REMARK  185  A    between atoms: _434  and  _436
REMARK  186  A    between atoms: _436  and  _437
REMARK  187  A    between atoms: _439  and  _441
REMARK  188  A    between atoms: _441  and  _442
REMARK  189  A    between atoms: _444  and  _446
REMARK  190  A    between atoms: _446  and  _447
REMARK  191  A    between atoms: _446  and  _449
REMARK  192  A    between atoms: _449  and  _450
REMARK  193  A    between atoms: _456  and  _458
REMARK  194  A    between atoms: _458  and  _459
REMARK  195  A    between atoms: _458  and  _461
REMARK  196  A    between atoms: _461  and  _462
REMARK  197  A    between atoms: _465  and  _467
REMARK  198  A    between atoms: _467  and  _468
REMARK  199  A    between atoms: _467  and  _470
REMARK  200  A    between atoms: _470  and  _471
REMARK  201  A    between atoms: _474  and  _476
REMARK  202  A    between atoms: _476  and  _477
REMARK  203  A    between atoms: _476  and  _479
REMARK  204  A    between atoms: _479  and  _480
REMARK  205  A    between atoms: _484  and  _485
REMARK  206  A    between atoms: _490  and  _492
REMARK  207  A    between atoms: _492  and  _493
REMARK  208  A    between atoms: _492  and  _495
REMARK  209  A    between atoms: _495  and  _496
REMARK  210  A    between atoms: _499  and  _501
REMARK  211  A    between atoms: _501  and  _502
REMARK  212  A    between atoms: _501  and  _504
REMARK  213  A    between atoms: _504  and  _505
REMARK  214  A    between atoms: _510  and  _512
REMARK  215  A    between atoms: _512  and  _513
REMARK  216  A    between atoms: _512  and  _515
REMARK  217  A    between atoms: _515  and  _516
REMARK  218  A    between atoms: _519  and  _521
REMARK  219  A    between atoms: _521  and  _522
REMARK  220  A    between atoms: _524  and  _526
REMARK  221  A    between atoms: _526  and  _527
REMARK  222  A    between atoms: _526  and  _529
REMARK  223  A    between atoms: _529  and  _530
REMARK  224  A    between atoms: _530  and  _531
REMARK  225  A    between atoms: _531  and  _532
REMARK  226  A    between atoms: _541  and  _543
REMARK  227  A    between atoms: _543  and  _544
REMARK  228  A    between atoms: _543  and  _546
REMARK  229  A    between atoms: _546  and  _547
REMARK                            x       y       z     vdW  Elec       q    Type
REMARK                         _______ _______ _______ _____ _____    ______ ____
ROOT
ATOM      1  O   HOH     1       5.445  21.489  11.165  0.00  0.00    +0.000 OA
ENDROOT
TORSDOF 0
REMARK  Name = ../refined-set-2016/3s54/3s54_pocket.pdb
REMARK  229 active torsions:
REMARK  status: ('A' for Active; 'I' for Inactive)
REMARK    1  A    between atoms: _1  and  _3
REMARK    2  A    between atoms: _3  and  _4
REMARK    3  A    between atoms: _3  and  _6
REMARK    4  A    between atoms: _6  and  _7
REMARK    5  A    between atoms: _7  and  _8
REMARK    6  A    between atoms: _8  and  _9
REMARK    7  A    between atoms: _18  and  _20
REMARK    8  A    between atoms: _20  and  _21
REMARK    9  A    between atoms: _20  and  _23
REMARK   10  A    between atoms: _23  and  _24
REMARK   11  A    between atoms: _27  and  _29
REMARK   12  A    between atoms: _29  and  _30
REMARK   13  A    between atoms: _29  and  _32
REMARK   14  A    between atoms: _32  and  _33
REMARK   15  A    between atoms: _36  and  _38
REMARK   16  A    between atoms: _38  and  _39
REMARK   17  A    between atoms: _38  and  _41
REMARK   18  A    between atoms: _41  and  _42
REMARK   19  A    between atoms: _45  and  _47
REMARK   20  A    between atoms: _47  and  _48
REMARK   21  A    between atoms: _47  and  _50
REMARK   22  A    between atoms: _50  and  _51
REMARK   23  A    between atoms: _54  and  _56
REMARK   24  A    between atoms: _56  and  _57
REMARK   25  A    between atoms: _59  and  _61
REMARK   26  A    between atoms: _61  and  _62
REMARK   27  A    between atoms: _65  and  _67
REMARK   28  A    between atoms: _67  and  _68
REMARK   29  A    between atoms: _67  and  _70
REMARK   30  A    between atoms: _70  and  _71
REMARK   31  A    between atoms: _74  and  _76
REMARK   32  A    between atoms: _76  and  _77
REMARK   33  A    between atoms: _76  and  _79
REMARK   34  A    between atoms: _79  and  _80
REMARK   35  A    between atoms: _80  and  _82
REMARK   36  A    between atoms: _83  and  _85
REMARK   37  A    between atoms: _85  and  _86
REMARK   38  A    between atoms: _85  and  _88
REMARK   39  A    between atoms: _88  and  _89
REMARK   40  A    between atoms: _92  and  _94
REMARK   41  A    between atoms: _94  and  _95
REMARK   42  A    between atoms: _94  and  _97
REMARK   43  A    between atoms: _97  and  _98
REMARK   44  A    between atoms: _101  and  _103
REMARK   45  A    between atoms: _103  and  _104
REMARK   46  A    between atoms: _103  and  _106
REMARK   47  A    between atoms: _106  and  _107
REMARK   48  A    between atoms: _107  and  _108
REMARK   49  A    between atoms: _108  and  _109
REMARK   50  A    between atoms: _109  and  _110
REMARK   51  A    between atoms: _114  and  _116
REMARK   52  A    between atoms: _116  and  _117
REMARK   53  A    between atoms: _116  and  _119
REMARK   54  A    between atoms: _119  and  _120
REMARK   55  A    between atoms: _120  and  _121
REMARK   56  A    between atoms: _123  and  _125
REMARK   57  A    between atoms: _125  and  _126
REMARK   58  A    between atoms: _125  and  _128
REMARK   59  A    between atoms: _131  and  _133
REMARK   60  A    between atoms: _133  and  _134
REMARK   61  A    between atoms: _136  and  _138
REMARK   62  A    between atoms: _138  and  _139
REMARK   63  A    between atoms: _141  and  _143
REMARK   64  A    between atoms: _143  and  _144
REMARK   65  A    between atoms: _143  and  _146
REMARK   66  A    between atoms: _146  and  _147
REMARK   67  A    between atoms: _150  and  _152
REMARK   68  A    between atoms: _152  and  _153
REMARK   69  A    between atoms: _155  and  _157
REMARK   70  A    between atoms: _157  and  _158
REMARK   71  A    between atoms: _160  and  _162
REMARK   72  A    between atoms: _162  and  _163
REMARK   73  A    between atoms: _162  and  _165
REMARK   74  A    between atoms: _165  and  _166
REMARK   75  A    between atoms: _172  and  _174
REMARK   76  A    between atoms: _174  and  _175
REMARK   77  A    between atoms: _174  and  _177
REMARK   78  A    between atoms: _177  and  _178
REMARK   79  A    between atoms: _181  and  _183
REMARK   80  A    between atoms: _183  and  _184
REMARK   81  A    between atoms: _183  and  _186
REMARK   82  A    between atoms: _189  and  _191
REMARK   83  A    between atoms: _191  and  _192
REMARK   84  A    between atoms: _191  and  _194
REMARK   85  A    between atoms: _194  and  _195
REMARK   86  A    between atoms: _198  and  _200
REMARK   87  A    between atoms: _200  and  _201
REMARK   88  A    between atoms: _200  and  _203
REMARK   89  A    between atoms: _203  and  _204
REMARK   90  A    between atoms: _208  and  _209
REMARK   91  A    between atoms: _214  and  _216
REMARK   92  A    between atoms: _216  and  _217
REMARK   93  A    between atoms: _216  and  _219
REMARK   94  A    between atoms: _219  and  _220
REMARK   95  A    between atoms: _223  and  _225
REMARK   96  A    between atoms: _225  and  _226
REMARK   97  A    between atoms: _225  and  _228
REMARK   98  A    between atoms: _228  and  _229
REMARK   99  A    between atoms: _234  and  _236
REMARK  100  A    between atoms: _236  and  _237
REMARK  101  A    between atoms: _236  and  _239
REMARK  102  A    between atoms: _239  and  _240
REMARK  103  A    between atoms: _243  and  _245
REMARK  104  A    between atoms: _245  and  _246
REMARK  105  A    between atoms: _245  and  _248
REMARK  106  A    between atoms: _248  and  _249
REMARK  107  A    between atoms: _252  and  _254
REMARK  108  A    between atoms: _254  and  _255
REMARK  109  A    between atoms: _257  and  _259
REMARK  110  A    between atoms: _259  and  _260
REMARK  111  A    between atoms: _259  and  _262
REMARK  112  A    between atoms: _262  and  _263
REMARK  113  A    between atoms: _263  and  _264
REMARK  114  A    between atoms: _264  and  _265
REMARK  115  A    between atoms: _274  and  _276
REMARK  116  A    between atoms: _276  and  _277
REMARK  117  A    between atoms: _276  and  _279
REMARK  118  A    between atoms: _279  and  _280
REMARK  119  A    between atoms: _285  and  _287
REMARK  120  A    between atoms: _287  and  _288
REMARK  121  A    between atoms: _287  and  _290
REMARK  122  A    between atoms: _290  and  _291
REMARK  123  A    between atoms: _291  and  _292
REMARK  124  A    between atoms: _292  and  _293
REMARK  125  A    between atoms: _302  and  _304
REMARK  126  A    between atoms: _304  and  _305
REMARK  127  A    between atoms: _304  and  _307
REMARK  128  A    between atoms: _307  and  _308
REMARK  129  A    between atoms: _311  and  _313
REMARK  130  A    between atoms: _313  and  _314
REMARK  131  A    between atoms: _313  and  _316
REMARK  132  A    between atoms: _316  and  _317
REMARK  133  A    between atoms: _320  and  _322
REMARK  134  A    between atoms: _322  and  _323
REMARK  135  A    between atoms: _322  and  _325
REMARK  136  A    between atoms: _325  and  _326
REMARK  137  A    between atoms: _329  and  _331
REMARK  138  A    between atoms: _331  and  _332
REMARK  139  A    between atoms: _331  and  _334
REMARK  140  A    between atoms: _334  and  _335
REMARK  141  A    between atoms: _338  and  _340
REMARK  142  A    between atoms: _340  and  _341
REMARK  143  A    between atoms: _343  and  _345
REMARK  144  A    between atoms: _345  and  _346
REMARK  145  A    between atoms: _349  and  _351
REMARK  146  A    between atoms: _351  and  _352
REMARK  147  A    between atoms: _351  and  _354
REMARK  148  A    between atoms: _354  and  _355
REMARK  149  A    between atoms: _358  and  _360
REMARK  150  A    between atoms: _360  and  _361
REMARK  151  A    between atoms: _360  and  _363
REMARK  152  A    between atoms: _363  and  _364
REMARK  153  A    between atoms: _364  and  _366
REMARK  154  A    between atoms: _367  and  _369
REMARK  155  A    between atoms: _369  and  _370
REMARK  156  A    between atoms: _369  and  _372
REMARK  157  A    between atoms: _372  and  _373
REMARK  158  A    between atoms: _376  and  _378
REMARK  159  A    between atoms: _378  and  _379
REMARK  160  A    between atoms: _378  and  _381
REMARK  161  A    between atoms: _381  and  _382
REMARK  162  A    between atoms: _385  and  _387
REMARK  163  A    between atoms: _387  and  _388
REMARK  164  A    between atoms: _387  and  _390
REMARK  165  A    between atoms: _390  and  _391
REMARK  166  A    between atoms: _391  and  _392
REMARK  167  A    between atoms: _392  and  _393
REMARK  168  A    between atoms: _393  and  _394
REMARK  169  A    between atoms: _398  and  _400
REMARK  170  A    between atoms: _400  and  _401
REMARK  171  A    between atoms: _400  and  _403
REMARK  172  A    between atoms: _403  and  _404
REMARK  173  A    between atoms: _404  and  _405
REMARK  174  A    between atoms: _407  and  _409
REMARK  175  A    between atoms: _409  and  _410
REMARK  176  A    between atoms: _409  and  _412
REMARK  177  A    between atoms: _415  and  _417
REMARK  178  A    between atoms: _417  and  _418
REMARK  179  A    between atoms: _420  and  _422
REMARK  180  A    between atoms: _422  and  _423
REMARK  181  A    between atoms: _425  and  _427
REMARK  182  A    between atoms: _427  and  _428
REMARK  183  A    between atoms: _427  and  _430
REMARK  184  A    between atoms: _430  and  _431
REMARK  185  A    between atoms: _434  and  _436
REMARK  186  A    between atoms: _436  and  _437
REMARK  187  A    between atoms: _439  and  _441
REMARK  188  A    between atoms: _441  and  _442
REMARK  189  A    between atoms: _444  and  _446
REMARK  190  A    between atoms: _446  and  _447
REMARK  191  A    between atoms: _446  and  _449
REMARK  192  A    between atoms: _449  and  _450
REMARK  193  A    between atoms: _456  and  _458
REMARK  194  A    between atoms: _458  and  _459
REMARK  195  A    between atoms: _458  and  _461
REMARK  196  A    between atoms: _461  and  _462
REMARK  197  A    between atoms: _465  and  _467
REMARK  198  A    between atoms: _467  and  _468
REMARK  199  A    between atoms: _467  and  _470
REMARK  200  A    between atoms: _470  and  _471
REMARK  201  A    between atoms: _474  and  _476
REMARK  202  A    between atoms: _476  and  _477
REMARK  203  A    between atoms: _476  and  _479
REMARK  204  A    between atoms: _479  and  _480
REMARK  205  A    between atoms: _484  and  _485
REMARK  206  A    between atoms: _490  and  _492
REMARK  207  A    between atoms: _492  and  _493
REMARK  208  A    between atoms: _492  and  _495
REMARK  209  A    between atoms: _495  and  _496
REMARK  210  A    between atoms: _499  and  _501
REMARK  211  A    between atoms: _501  and  _502
REMARK  212  A    between atoms: _501  and  _504
REMARK  213  A    between atoms: _504  and  _505
REMARK  214  A    between atoms: _510  and  _512
REMARK  215  A    between atoms: _512  and  _513
REMARK  216  A    between atoms: _512  and  _515
REMARK  217  A    between atoms: _515  and  _516
REMARK  218  A    between atoms: _519  and  _521
REMARK  219  A    between atoms: _521  and  _522
REMARK  220  A    between atoms: _524  and  _526
REMARK  221  A    between atoms: _526  and  _527
REMARK  222  A    between atoms: _526  and  _529
REMARK  223  A    between atoms: _529  and  _530
REMARK  224  A    between atoms: _530  and  _531
REMARK  225  A    between atoms: _531  and  _532
REMARK  226  A    between atoms: _541  and  _543
REMARK  227  A    between atoms: _543  and  _544
REMARK  228  A    between atoms: _543  and  _546
REMARK  229  A    between atoms: _546  and  _547
REMARK                            x       y       z     vdW  Elec       q    Type
REMARK                         _______ _______ _______ _____ _____    ______ ____
ROOT
ATOM      1  O   HOH     1      20.787  33.525  10.631  0.00  0.00    +0.000 OA
ENDROOT
TORSDOF 0
REMARK  Name = ../refined-set-2016/3s54/3s54_pocket.pdb
REMARK  229 active torsions:
REMARK  status: ('A' for Active; 'I' for Inactive)
REMARK    1  A    between atoms: _1  and  _3
REMARK    2  A    between atoms: _3  and  _4
REMARK    3  A    between atoms: _3  and  _6
REMARK    4  A    between atoms: _6  and  _7
REMARK    5  A    between atoms: _7  and  _8
REMARK    6  A    between atoms: _8  and  _9
REMARK    7  A    between atoms: _18  and  _20
REMARK    8  A    between atoms: _20  and  _21
REMARK    9  A    between atoms: _20  and  _23
REMARK   10  A    between atoms: _23  and  _24
REMARK   11  A    between atoms: _27  and  _29
REMARK   12  A    between atoms: _29  and  _30
REMARK   13  A    between atoms: _29  and  _32
REMARK   14  A    between atoms: _32  and  _33
REMARK   15  A    between atoms: _36  and  _38
REMARK   16  A    between atoms: _38  and  _39
REMARK   17  A    between atoms: _38  and  _41
REMARK   18  A    between atoms: _41  and  _42
REMARK   19  A    between atoms: _45  and  _47
REMARK   20  A    between atoms: _47  and  _48
REMARK   21  A    between atoms: _47  and  _50
REMARK   22  A    between atoms: _50  and  _51
REMARK   23  A    between atoms: _54  and  _56
REMARK   24  A    between atoms: _56  and  _57
REMARK   25  A    between atoms: _59  and  _61
REMARK   26  A    between atoms: _61  and  _62
REMARK   27  A    between atoms: _65  and  _67
REMARK   28  A    between atoms: _67  and  _68
REMARK   29  A    between atoms: _67  and  _70
REMARK   30  A    between atoms: _70  and  _71
REMARK   31  A    between atoms: _74  and  _76
REMARK   32  A    between atoms: _76  and  _77
REMARK   33  A    between atoms: _76  and  _79
REMARK   34  A    between atoms: _79  and  _80
REMARK   35  A    between atoms: _80  and  _82
REMARK   36  A    between atoms: _83  and  _85
REMARK   37  A    between atoms: _85  and  _86
REMARK   38  A    between atoms: _85  and  _88
REMARK   39  A    between atoms: _88  and  _89
REMARK   40  A    between atoms: _92  and  _94
REMARK   41  A    between atoms: _94  and  _95
REMARK   42  A    between atoms: _94  and  _97
REMARK   43  A    between atoms: _97  and  _98
REMARK   44  A    between atoms: _101  and  _103
REMARK   45  A    between atoms: _103  and  _104
REMARK   46  A    between atoms: _103  and  _106
REMARK   47  A    between atoms: _106  and  _107
REMARK   48  A    between atoms: _107  and  _108
REMARK   49  A    between atoms: _108  and  _109
REMARK   50  A    between atoms: _109  and  _110
REMARK   51  A    between atoms: _114  and  _116
REMARK   52  A    between atoms: _116  and  _117
REMARK   53  A    between atoms: _116  and  _119
REMARK   54  A    between atoms: _119  and  _120
REMARK   55  A    between atoms: _120  and  _121
REMARK   56  A    between atoms: _123  and  _125
REMARK   57  A    between atoms: _125  and  _126
REMARK   58  A    between atoms: _125  and  _128
REMARK   59  A    between atoms: _131  and  _133
REMARK   60  A    between atoms: _133  and  _134
REMARK   61  A    between atoms: _136  and  _138
REMARK   62  A    between atoms: _138  and  _139
REMARK   63  A    between atoms: _141  and  _143
REMARK   64  A    between atoms: _143  and  _144
REMARK   65  A    between atoms: _143  and  _146
REMARK   66  A    between atoms: _146  and  _147
REMARK   67  A    between atoms: _150  and  _152
REMARK   68  A    between atoms: _152  and  _153
REMARK   69  A    between atoms: _155  and  _157
REMARK   70  A    between atoms: _157  and  _158
REMARK   71  A    between atoms: _160  and  _162
REMARK   72  A    between atoms: _162  and  _163
REMARK   73  A    between atoms: _162  and  _165
REMARK   74  A    between atoms: _165  and  _166
REMARK   75  A    between atoms: _172  and  _174
REMARK   76  A    between atoms: _174  and  _175
REMARK   77  A    between atoms: _174  and  _177
REMARK   78  A    between atoms: _177  and  _178
REMARK   79  A    between atoms: _181  and  _183
REMARK   80  A    between atoms: _183  and  _184
REMARK   81  A    between atoms: _183  and  _186
REMARK   82  A    between atoms: _189  and  _191
REMARK   83  A    between atoms: _191  and  _192
REMARK   84  A    between atoms: _191  and  _194
REMARK   85  A    between atoms: _194  and  _195
REMARK   86  A    between atoms: _198  and  _200
REMARK   87  A    between atoms: _200  and  _201
REMARK   88  A    between atoms: _200  and  _203
REMARK   89  A    between atoms: _203  and  _204
REMARK   90  A    between atoms: _208  and  _209
REMARK   91  A    between atoms: _214  and  _216
REMARK   92  A    between atoms: _216  and  _217
REMARK   93  A    between atoms: _216  and  _219
REMARK   94  A    between atoms: _219  and  _220
REMARK   95  A    between atoms: _223  and  _225
REMARK   96  A    between atoms: _225  and  _226
REMARK   97  A    between atoms: _225  and  _228
REMARK   98  A    between atoms: _228  and  _229
REMARK   99  A    between atoms: _234  and  _236
REMARK  100  A    between atoms: _236  and  _237
REMARK  101  A    between atoms: _236  and  _239
REMARK  102  A    between atoms: _239  and  _240
REMARK  103  A    between atoms: _243  and  _245
REMARK  104  A    between atoms: _245  and  _246
REMARK  105  A    between atoms: _245  and  _248
REMARK  106  A    between atoms: _248  and  _249
REMARK  107  A    between atoms: _252  and  _254
REMARK  108  A    between atoms: _254  and  _255
REMARK  109  A    between atoms: _257  and  _259
REMARK  110  A    between atoms: _259  and  _260
REMARK  111  A    between atoms: _259  and  _262
REMARK  112  A    between atoms: _262  and  _263
REMARK  113  A    between atoms: _263  and  _264
REMARK  114  A    between atoms: _264  and  _265
REMARK  115  A    between atoms: _274  and  _276
REMARK  116  A    between atoms: _276  and  _277
REMARK  117  A    between atoms: _276  and  _279
REMARK  118  A    between atoms: _279  and  _280
REMARK  119  A    between atoms: _285  and  _287
REMARK  120  A    between atoms: _287  and  _288
REMARK  121  A    between atoms: _287  and  _290
REMARK  122  A    between atoms: _290  and  _291
REMARK  123  A    between atoms: _291  and  _292
REMARK  124  A    between atoms: _292  and  _293
REMARK  125  A    between atoms: _302  and  _304
REMARK  126  A    between atoms: _304  and  _305
REMARK  127  A    between atoms: _304  and  _307
REMARK  128  A    between atoms: _307  and  _308
REMARK  129  A    between atoms: _311  and  _313
REMARK  130  A    between atoms: _313  and  _314
REMARK  131  A    between atoms: _313  and  _316
REMARK  132  A    between atoms: _316  and  _317
REMARK  133  A    between atoms: _320  and  _322
REMARK  134  A    between atoms: _322  and  _323
REMARK  135  A    between atoms: _322  and  _325
REMARK  136  A    between atoms: _325  and  _326
REMARK  137  A    between atoms: _329  and  _331
REMARK  138  A    between atoms: _331  and  _332
REMARK  139  A    between atoms: _331  and  _334
REMARK  140  A    between atoms: _334  and  _335
REMARK  141  A    between atoms: _338  and  _340
REMARK  142  A    between atoms: _340  and  _341
REMARK  143  A    between atoms: _343  and  _345
REMARK  144  A    between atoms: _345  and  _346
REMARK  145  A    between atoms: _349  and  _351
REMARK  146  A    between atoms: _351  and  _352
REMARK  147  A    between atoms: _351  and  _354
REMARK  148  A    between atoms: _354  and  _355
REMARK  149  A    between atoms: _358  and  _360
REMARK  150  A    between atoms: _360  and  _361
REMARK  151  A    between atoms: _360  and  _363
REMARK  152  A    between atoms: _363  and  _364
REMARK  153  A    between atoms: _364  and  _366
REMARK  154  A    between atoms: _367  and  _369
REMARK  155  A    between atoms: _369  and  _370
REMARK  156  A    between atoms: _369  and  _372
REMARK  157  A    between atoms: _372  and  _373
REMARK  158  A    between atoms: _376  and  _378
REMARK  159  A    between atoms: _378  and  _379
REMARK  160  A    between atoms: _378  and  _381
REMARK  161  A    between atoms: _381  and  _382
REMARK  162  A    between atoms: _385  and  _387
REMARK  163  A    between atoms: _387  and  _388
REMARK  164  A    between atoms: _387  and  _390
REMARK  165  A    between atoms: _390  and  _391
REMARK  166  A    between atoms: _391  and  _392
REMARK  167  A    between atoms: _392  and  _393
REMARK  168  A    between atoms: _393  and  _394
REMARK  169  A    between atoms: _398  and  _400
REMARK  170  A    between atoms: _400  and  _401
REMARK  171  A    between atoms: _400  and  _403
REMARK  172  A    between atoms: _403  and  _404
REMARK  173  A    between atoms: _404  and  _405
REMARK  174  A    between atoms: _407  and  _409
REMARK  175  A    between atoms: _409  and  _410
REMARK  176  A    between atoms: _409  and  _412
REMARK  177  A    between atoms: _415  and  _417
REMARK  178  A    between atoms: _417  and  _418
REMARK  179  A    between atoms: _420  and  _422
REMARK  180  A    between atoms: _422  and  _423
REMARK  181  A    between atoms: _425  and  _427
REMARK  182  A    between atoms: _427  and  _428
REMARK  183  A    between atoms: _427  and  _430
REMARK  184  A    between atoms: _430  and  _431
REMARK  185  A    between atoms: _434  and  _436
REMARK  186  A    between atoms: _436  and  _437
REMARK  187  A    between atoms: _439  and  _441
REMARK  188  A    between atoms: _441  and  _442
REMARK  189  A    between atoms: _444  and  _446
REMARK  190  A    between atoms: _446  and  _447
REMARK  191  A    between atoms: _446  and  _449
REMARK  192  A    between atoms: _449  and  _450
REMARK  193  A    between atoms: _456  and  _458
REMARK  194  A    between atoms: _458  and  _459
REMARK  195  A    between atoms: _458  and  _461
REMARK  196  A    between atoms: _461  and  _462
REMARK  197  A    between atoms: _465  and  _467
REMARK  198  A    between atoms: _467  and  _468
REMARK  199  A    between atoms: _467  and  _470
REMARK  200  A    between atoms: _470  and  _471
REMARK  201  A    between atoms: _474  and  _476
REMARK  202  A    between atoms: _476  and  _477
REMARK  203  A    between atoms: _476  and  _479
REMARK  204  A    between atoms: _479  and  _480
REMARK  205  A    between atoms: _484  and  _485
REMARK  206  A    between atoms: _490  and  _492
REMARK  207  A    between atoms: _492  and  _493
REMARK  208  A    between atoms: _492  and  _495
REMARK  209  A    between atoms: _495  and  _496
REMARK  210  A    between atoms: _499  and  _501
REMARK  211  A    between atoms: _501  and  _502
REMARK  212  A    between atoms: _501  and  _504
REMARK  213  A    between atoms: _504  and  _505
REMARK  214  A    between atoms: _510  and  _512
REMARK  215  A    between atoms: _512  and  _513
REMARK  216  A    between atoms: _512  and  _515
REMARK  217  A    between atoms: _515  and  _516
REMARK  218  A    between atoms: _519  and  _521
REMARK  219  A    between atoms: _521  and  _522
REMARK  220  A    between atoms: _524  and  _526
REMARK  221  A    between atoms: _526  and  _527
REMARK  222  A    between atoms: _526  and  _529
REMARK  223  A    between atoms: _529  and  _530
REMARK  224  A    between atoms: _530  and  _531
REMARK  225  A    between atoms: _531  and  _532
REMARK  226  A    between atoms: _541  and  _543
REMARK  227  A    between atoms: _543  and  _544
REMARK  228  A    between atoms: _543  and  _546
REMARK  229  A    between atoms: _546  and  _547
REMARK                            x       y       z     vdW  Elec       q    Type
REMARK                         _______ _______ _______ _____ _____    ______ ____
ROOT
ATOM      1  O   HOH     1      25.742  33.717  11.324  0.00  0.00    +0.000 OA
ENDROOT
TORSDOF 0
REMARK  Name = ../refined-set-2016/3s54/3s54_pocket.pdb
REMARK  229 active torsions:
REMARK  status: ('A' for Active; 'I' for Inactive)
REMARK    1  A    between atoms: _1  and  _3
REMARK    2  A    between atoms: _3  and  _4
REMARK    3  A    between atoms: _3  and  _6
REMARK    4  A    between atoms: _6  and  _7
REMARK    5  A    between atoms: _7  and  _8
REMARK    6  A    between atoms: _8  and  _9
REMARK    7  A    between atoms: _18  and  _20
REMARK    8  A    between atoms: _20  and  _21
REMARK    9  A    between atoms: _20  and  _23
REMARK   10  A    between atoms: _23  and  _24
REMARK   11  A    between atoms: _27  and  _29
REMARK   12  A    between atoms: _29  and  _30
REMARK   13  A    between atoms: _29  and  _32
REMARK   14  A    between atoms: _32  and  _33
REMARK   15  A    between atoms: _36  and  _38
REMARK   16  A    between atoms: _38  and  _39
REMARK   17  A    between atoms: _38  and  _41
REMARK   18  A    between atoms: _41  and  _42
REMARK   19  A    between atoms: _45  and  _47
REMARK   20  A    between atoms: _47  and  _48
REMARK   21  A    between atoms: _47  and  _50
REMARK   22  A    between atoms: _50  and  _51
REMARK   23  A    between atoms: _54  and  _56
REMARK   24  A    between atoms: _56  and  _57
REMARK   25  A    between atoms: _59  and  _61
REMARK   26  A    between atoms: _61  and  _62
REMARK   27  A    between atoms: _65  and  _67
REMARK   28  A    between atoms: _67  and  _68
REMARK   29  A    between atoms: _67  and  _70
REMARK   30  A    between atoms: _70  and  _71
REMARK   31  A    between atoms: _74  and  _76
REMARK   32  A    between atoms: _76  and  _77
REMARK   33  A    between atoms: _76  and  _79
REMARK   34  A    between atoms: _79  and  _80
REMARK   35  A    between atoms: _80  and  _82
REMARK   36  A    between atoms: _83  and  _85
REMARK   37  A    between atoms: _85  and  _86
REMARK   38  A    between atoms: _85  and  _88
REMARK   39  A    between atoms: _88  and  _89
REMARK   40  A    between atoms: _92  and  _94
REMARK   41  A    between atoms: _94  and  _95
REMARK   42  A    between atoms: _94  and  _97
REMARK   43  A    between atoms: _97  and  _98
REMARK   44  A    between atoms: _101  and  _103
REMARK   45  A    between atoms: _103  and  _104
REMARK   46  A    between atoms: _103  and  _106
REMARK   47  A    between atoms: _106  and  _107
REMARK   48  A    between atoms: _107  and  _108
REMARK   49  A    between atoms: _108  and  _109
REMARK   50  A    between atoms: _109  and  _110
REMARK   51  A    between atoms: _114  and  _116
REMARK   52  A    between atoms: _116  and  _117
REMARK   53  A    between atoms: _116  and  _119
REMARK   54  A    between atoms: _119  and  _120
REMARK   55  A    between atoms: _120  and  _121
REMARK   56  A    between atoms: _123  and  _125
REMARK   57  A    between atoms: _125  and  _126
REMARK   58  A    between atoms: _125  and  _128
REMARK   59  A    between atoms: _131  and  _133
REMARK   60  A    between atoms: _133  and  _134
REMARK   61  A    between atoms: _136  and  _138
REMARK   62  A    between atoms: _138  and  _139
REMARK   63  A    between atoms: _141  and  _143
REMARK   64  A    between atoms: _143  and  _144
REMARK   65  A    between atoms: _143  and  _146
REMARK   66  A    between atoms: _146  and  _147
REMARK   67  A    between atoms: _150  and  _152
REMARK   68  A    between atoms: _152  and  _153
REMARK   69  A    between atoms: _155  and  _157
REMARK   70  A    between atoms: _157  and  _158
REMARK   71  A    between atoms: _160  and  _162
REMARK   72  A    between atoms: _162  and  _163
REMARK   73  A    between atoms: _162  and  _165
REMARK   74  A    between atoms: _165  and  _166
REMARK   75  A    between atoms: _172  and  _174
REMARK   76  A    between atoms: _174  and  _175
REMARK   77  A    between atoms: _174  and  _177
REMARK   78  A    between atoms: _177  and  _178
REMARK   79  A    between atoms: _181  and  _183
REMARK   80  A    between atoms: _183  and  _184
REMARK   81  A    between atoms: _183  and  _186
REMARK   82  A    between atoms: _189  and  _191
REMARK   83  A    between atoms: _191  and  _192
REMARK   84  A    between atoms: _191  and  _194
REMARK   85  A    between atoms: _194  and  _195
REMARK   86  A    between atoms: _198  and  _200
REMARK   87  A    between atoms: _200  and  _201
REMARK   88  A    between atoms: _200  and  _203
REMARK   89  A    between atoms: _203  and  _204
REMARK   90  A    between atoms: _208  and  _209
REMARK   91  A    between atoms: _214  and  _216
REMARK   92  A    between atoms: _216  and  _217
REMARK   93  A    between atoms: _216  and  _219
REMARK   94  A    between atoms: _219  and  _220
REMARK   95  A    between atoms: _223  and  _225
REMARK   96  A    between atoms: _225  and  _226
REMARK   97  A    between atoms: _225  and  _228
REMARK   98  A    between atoms: _228  and  _229
REMARK   99  A    between atoms: _234  and  _236
REMARK  100  A    between atoms: _236  and  _237
REMARK  101  A    between atoms: _236  and  _239
REMARK  102  A    between atoms: _239  and  _240
REMARK  103  A    between atoms: _243  and  _245
REMARK  104  A    between atoms: _245  and  _246
REMARK  105  A    between atoms: _245  and  _248
REMARK  106  A    between atoms: _248  and  _249
REMARK  107  A    between atoms: _252  and  _254
REMARK  108  A    between atoms: _254  and  _255
REMARK  109  A    between atoms: _257  and  _259
REMARK  110  A    between atoms: _259  and  _260
REMARK  111  A    between atoms: _259  and  _262
REMARK  112  A    between atoms: _262  and  _263
REMARK  113  A    between atoms: _263  and  _264
REMARK  114  A    between atoms: _264  and  _265
REMARK  115  A    between atoms: _274  and  _276
REMARK  116  A    between atoms: _276  and  _277
REMARK  117  A    between atoms: _276  and  _279
REMARK  118  A    between atoms: _279  and  _280
REMARK  119  A    between atoms: _285  and  _287
REMARK  120  A    between atoms: _287  and  _288
REMARK  121  A    between atoms: _287  and  _290
REMARK  122  A    between atoms: _290  and  _291
REMARK  123  A    between atoms: _291  and  _292
REMARK  124  A    between atoms: _292  and  _293
REMARK  125  A    between atoms: _302  and  _304
REMARK  126  A    between atoms: _304  and  _305
REMARK  127  A    between atoms: _304  and  _307
REMARK  128  A    between atoms: _307  and  _308
REMARK  129  A    between atoms: _311  and  _313
REMARK  130  A    between atoms: _313  and  _314
REMARK  131  A    between atoms: _313  and  _316
REMARK  132  A    between atoms: _316  and  _317
REMARK  133  A    between atoms: _320  and  _322
REMARK  134  A    between atoms: _322  and  _323
REMARK  135  A    between atoms: _322  and  _325
REMARK  136  A    between atoms: _325  and  _326
REMARK  137  A    between atoms: _329  and  _331
REMARK  138  A    between atoms: _331  and  _332
REMARK  139  A    between atoms: _331  and  _334
REMARK  140  A    between atoms: _334  and  _335
REMARK  141  A    between atoms: _338  and  _340
REMARK  142  A    between atoms: _340  and  _341
REMARK  143  A    between atoms: _343  and  _345
REMARK  144  A    between atoms: _345  and  _346
REMARK  145  A    between atoms: _349  and  _351
REMARK  146  A    between atoms: _351  and  _352
REMARK  147  A    between atoms: _351  and  _354
REMARK  148  A    between atoms: _354  and  _355
REMARK  149  A    between atoms: _358  and  _360
REMARK  150  A    between atoms: _360  and  _361
REMARK  151  A    between atoms: _360  and  _363
REMARK  152  A    between atoms: _363  and  _364
REMARK  153  A    between atoms: _364  and  _366
REMARK  154  A    between atoms: _367  and  _369
REMARK  155  A    between atoms: _369  and  _370
REMARK  156  A    between atoms: _369  and  _372
REMARK  157  A    between atoms: _372  and  _373
REMARK  158  A    between atoms: _376  and  _378
REMARK  159  A    between atoms: _378  and  _379
REMARK  160  A    between atoms: _378  and  _381
REMARK  161  A    between atoms: _381  and  _382
REMARK  162  A    between atoms: _385  and  _387
REMARK  163  A    between atoms: _387  and  _388
REMARK  164  A    between atoms: _387  and  _390
REMARK  165  A    between atoms: _390  and  _391
REMARK  166  A    between atoms: _391  and  _392
REMARK  167  A    between atoms: _392  and  _393
REMARK  168  A    between atoms: _393  and  _394
REMARK  169  A    between atoms: _398  and  _400
REMARK  170  A    between atoms: _400  and  _401
REMARK  171  A    between atoms: _400  and  _403
REMARK  172  A    between atoms: _403  and  _404
REMARK  173  A    between atoms: _404  and  _405
REMARK  174  A    between atoms: _407  and  _409
REMARK  175  A    between atoms: _409  and  _410
REMARK  176  A    between atoms: _409  and  _412
REMARK  177  A    between atoms: _415  and  _417
REMARK  178  A    between atoms: _417  and  _418
REMARK  179  A    between atoms: _420  and  _422
REMARK  180  A    between atoms: _422  and  _423
REMARK  181  A    between atoms: _425  and  _427
REMARK  182  A    between atoms: _427  and  _428
REMARK  183  A    between atoms: _427  and  _430
REMARK  184  A    between atoms: _430  and  _431
REMARK  185  A    between atoms: _434  and  _436
REMARK  186  A    between atoms: _436  and  _437
REMARK  187  A    between atoms: _439  and  _441
REMARK  188  A    between atoms: _441  and  _442
REMARK  189  A    between atoms: _444  and  _446
REMARK  190  A    between atoms: _446  and  _447
REMARK  191  A    between atoms: _446  and  _449
REMARK  192  A    between atoms: _449  and  _450
REMARK  193  A    between atoms: _456  and  _458
REMARK  194  A    between atoms: _458  and  _459
REMARK  195  A    between atoms: _458  and  _461
REMARK  196  A    between atoms: _461  and  _462
REMARK  197  A    between atoms: _465  and  _467
REMARK  198  A    between atoms: _467  and  _468
REMARK  199  A    between atoms: _467  and  _470
REMARK  200  A    between atoms: _470  and  _471
REMARK  201  A    between atoms: _474  and  _476
REMARK  202  A    between atoms: _476  and  _477
REMARK  203  A    between atoms: _476  and  _479
REMARK  204  A    between atoms: _479  and  _480
REMARK  205  A    between atoms: _484  and  _485
REMARK  206  A    between atoms: _490  and  _492
REMARK  207  A    between atoms: _492  and  _493
REMARK  208  A    between atoms: _492  and  _495
REMARK  209  A    between atoms: _495  and  _496
REMARK  210  A    between atoms: _499  and  _501
REMARK  211  A    between atoms: _501  and  _502
REMARK  212  A    between atoms: _501  and  _504
REMARK  213  A    between atoms: _504  and  _505
REMARK  214  A    between atoms: _510  and  _512
REMARK  215  A    between atoms: _512  and  _513
REMARK  216  A    between atoms: _512  and  _515
REMARK  217  A    between atoms: _515  and  _516
REMARK  218  A    between atoms: _519  and  _521
REMARK  219  A    between atoms: _521  and  _522
REMARK  220  A    between atoms: _524  and  _526
REMARK  221  A    between atoms: _526  and  _527
REMARK  222  A    between atoms: _526  and  _529
REMARK  223  A    between atoms: _529  and  _530
REMARK  224  A    between atoms: _530  and  _531
REMARK  225  A    between atoms: _531  and  _532
REMARK  226  A    between atoms: _541  and  _543
REMARK  227  A    between atoms: _543  and  _544
REMARK  228  A    between atoms: _543  and  _546
REMARK  229  A    between atoms: _546  and  _547
REMARK                            x       y       z     vdW  Elec       q    Type
REMARK                         _______ _______ _______ _____ _____    ______ ____
ROOT
ATOM      1  O   HOH     1       9.410  18.917  11.246  0.00  0.00    +0.000 OA
ENDROOT
TORSDOF 0
REMARK  Name = ../refined-set-2016/3s54/3s54_pocket.pdb
REMARK  229 active torsions:
REMARK  status: ('A' for Active; 'I' for Inactive)
REMARK    1  A    between atoms: _1  and  _3
REMARK    2  A    between atoms: _3  and  _4
REMARK    3  A    between atoms: _3  and  _6
REMARK    4  A    between atoms: _6  and  _7
REMARK    5  A    between atoms: _7  and  _8
REMARK    6  A    between atoms: _8  and  _9
REMARK    7  A    between atoms: _18  and  _20
REMARK    8  A    between atoms: _20  and  _21
REMARK    9  A    between atoms: _20  and  _23
REMARK   10  A    between atoms: _23  and  _24
REMARK   11  A    between atoms: _27  and  _29
REMARK   12  A    between atoms: _29  and  _30
REMARK   13  A    between atoms: _29  and  _32
REMARK   14  A    between atoms: _32  and  _33
REMARK   15  A    between atoms: _36  and  _38
REMARK   16  A    between atoms: _38  and  _39
REMARK   17  A    between atoms: _38  and  _41
REMARK   18  A    between atoms: _41  and  _42
REMARK   19  A    between atoms: _45  and  _47
REMARK   20  A    between atoms: _47  and  _48
REMARK   21  A    between atoms: _47  and  _50
REMARK   22  A    between atoms: _50  and  _51
REMARK   23  A    between atoms: _54  and  _56
REMARK   24  A    between atoms: _56  and  _57
REMARK   25  A    between atoms: _59  and  _61
REMARK   26  A    between atoms: _61  and  _62
REMARK   27  A    between atoms: _65  and  _67
REMARK   28  A    between atoms: _67  and  _68
REMARK   29  A    between atoms: _67  and  _70
REMARK   30  A    between atoms: _70  and  _71
REMARK   31  A    between atoms: _74  and  _76
REMARK   32  A    between atoms: _76  and  _77
REMARK   33  A    between atoms: _76  and  _79
REMARK   34  A    between atoms: _79  and  _80
REMARK   35  A    between atoms: _80  and  _82
REMARK   36  A    between atoms: _83  and  _85
REMARK   37  A    between atoms: _85  and  _86
REMARK   38  A    between atoms: _85  and  _88
REMARK   39  A    between atoms: _88  and  _89
REMARK   40  A    between atoms: _92  and  _94
REMARK   41  A    between atoms: _94  and  _95
REMARK   42  A    between atoms: _94  and  _97
REMARK   43  A    between atoms: _97  and  _98
REMARK   44  A    between atoms: _101  and  _103
REMARK   45  A    between atoms: _103  and  _104
REMARK   46  A    between atoms: _103  and  _106
REMARK   47  A    between atoms: _106  and  _107
REMARK   48  A    between atoms: _107  and  _108
REMARK   49  A    between atoms: _108  and  _109
REMARK   50  A    between atoms: _109  and  _110
REMARK   51  A    between atoms: _114  and  _116
REMARK   52  A    between atoms: _116  and  _117
REMARK   53  A    between atoms: _116  and  _119
REMARK   54  A    between atoms: _119  and  _120
REMARK   55  A    between atoms: _120  and  _121
REMARK   56  A    between atoms: _123  and  _125
REMARK   57  A    between atoms: _125  and  _126
REMARK   58  A    between atoms: _125  and  _128
REMARK   59  A    between atoms: _131  and  _133
REMARK   60  A    between atoms: _133  and  _134
REMARK   61  A    between atoms: _136  and  _138
REMARK   62  A    between atoms: _138  and  _139
REMARK   63  A    between atoms: _141  and  _143
REMARK   64  A    between atoms: _143  and  _144
REMARK   65  A    between atoms: _143  and  _146
REMARK   66  A    between atoms: _146  and  _147
REMARK   67  A    between atoms: _150  and  _152
REMARK   68  A    between atoms: _152  and  _153
REMARK   69  A    between atoms: _155  and  _157
REMARK   70  A    between atoms: _157  and  _158
REMARK   71  A    between atoms: _160  and  _162
REMARK   72  A    between atoms: _162  and  _163
REMARK   73  A    between atoms: _162  and  _165
REMARK   74  A    between atoms: _165  and  _166
REMARK   75  A    between atoms: _172  and  _174
REMARK   76  A    between atoms: _174  and  _175
REMARK   77  A    between atoms: _174  and  _177
REMARK   78  A    between atoms: _177  and  _178
REMARK   79  A    between atoms: _181  and  _183
REMARK   80  A    between atoms: _183  and  _184
REMARK   81  A    between atoms: _183  and  _186
REMARK   82  A    between atoms: _189  and  _191
REMARK   83  A    between atoms: _191  and  _192
REMARK   84  A    between atoms: _191  and  _194
REMARK   85  A    between atoms: _194  and  _195
REMARK   86  A    between atoms: _198  and  _200
REMARK   87  A    between atoms: _200  and  _201
REMARK   88  A    between atoms: _200  and  _203
REMARK   89  A    between atoms: _203  and  _204
REMARK   90  A    between atoms: _208  and  _209
REMARK   91  A    between atoms: _214  and  _216
REMARK   92  A    between atoms: _216  and  _217
REMARK   93  A    between atoms: _216  and  _219
REMARK   94  A    between atoms: _219  and  _220
REMARK   95  A    between atoms: _223  and  _225
REMARK   96  A    between atoms: _225  and  _226
REMARK   97  A    between atoms: _225  and  _228
REMARK   98  A    between atoms: _228  and  _229
REMARK   99  A    between atoms: _234  and  _236
REMARK  100  A    between atoms: _236  and  _237
REMARK  101  A    between atoms: _236  and  _239
REMARK  102  A    between atoms: _239  and  _240
REMARK  103  A    between atoms: _243  and  _245
REMARK  104  A    between atoms: _245  and  _246
REMARK  105  A    between atoms: _245  and  _248
REMARK  106  A    between atoms: _248  and  _249
REMARK  107  A    between atoms: _252  and  _254
REMARK  108  A    between atoms: _254  and  _255
REMARK  109  A    between atoms: _257  and  _259
REMARK  110  A    between atoms: _259  and  _260
REMARK  111  A    between atoms: _259  and  _262
REMARK  112  A    between atoms: _262  and  _263
REMARK  113  A    between atoms: _263  and  _264
REMARK  114  A    between atoms: _264  and  _265
REMARK  115  A    between atoms: _274  and  _276
REMARK  116  A    between atoms: _276  and  _277
REMARK  117  A    between atoms: _276  and  _279
REMARK  118  A    between atoms: _279  and  _280
REMARK  119  A    between atoms: _285  and  _287
REMARK  120  A    between atoms: _287  and  _288
REMARK  121  A    between atoms: _287  and  _290
REMARK  122  A    between atoms: _290  and  _291
REMARK  123  A    between atoms: _291  and  _292
REMARK  124  A    between atoms: _292  and  _293
REMARK  125  A    between atoms: _302  and  _304
REMARK  126  A    between atoms: _304  and  _305
REMARK  127  A    between atoms: _304  and  _307
REMARK  128  A    between atoms: _307  and  _308
REMARK  129  A    between atoms: _311  and  _313
REMARK  130  A    between atoms: _313  and  _314
REMARK  131  A    between atoms: _313  and  _316
REMARK  132  A    between atoms: _316  and  _317
REMARK  133  A    between atoms: _320  and  _322
REMARK  134  A    between atoms: _322  and  _323
REMARK  135  A    between atoms: _322  and  _325
REMARK  136  A    between atoms: _325  and  _326
REMARK  137  A    between atoms: _329  and  _331
REMARK  138  A    between atoms: _331  and  _332
REMARK  139  A    between atoms: _331  and  _334
REMARK  140  A    between atoms: _334  and  _335
REMARK  141  A    between atoms: _338  and  _340
REMARK  142  A    between atoms: _340  and  _341
REMARK  143  A    between atoms: _343  and  _345
REMARK  144  A    between atoms: _345  and  _346
REMARK  145  A    between atoms: _349  and  _351
REMARK  146  A    between atoms: _351  and  _352
REMARK  147  A    between atoms: _351  and  _354
REMARK  148  A    between atoms: _354  and  _355
REMARK  149  A    between atoms: _358  and  _360
REMARK  150  A    between atoms: _360  and  _361
REMARK  151  A    between atoms: _360  and  _363
REMARK  152  A    between atoms: _363  and  _364
REMARK  153  A    between atoms: _364  and  _366
REMARK  154  A    between atoms: _367  and  _369
REMARK  155  A    between atoms: _369  and  _370
REMARK  156  A    between atoms: _369  and  _372
REMARK  157  A    between atoms: _372  and  _373
REMARK  158  A    between atoms: _376  and  _378
REMARK  159  A    between atoms: _378  and  _379
REMARK  160  A    between atoms: _378  and  _381
REMARK  161  A    between atoms: _381  and  _382
REMARK  162  A    between atoms: _385  and  _387
REMARK  163  A    between atoms: _387  and  _388
REMARK  164  A    between atoms: _387  and  _390
REMARK  165  A    between atoms: _390  and  _391
REMARK  166  A    between atoms: _391  and  _392
REMARK  167  A    between atoms: _392  and  _393
REMARK  168  A    between atoms: _393  and  _394
REMARK  169  A    between atoms: _398  and  _400
REMARK  170  A    between atoms: _400  and  _401
REMARK  171  A    between atoms: _400  and  _403
REMARK  172  A    between atoms: _403  and  _404
REMARK  173  A    between atoms: _404  and  _405
REMARK  174  A    between atoms: _407  and  _409
REMARK  175  A    between atoms: _409  and  _410
REMARK  176  A    between atoms: _409  and  _412
REMARK  177  A    between atoms: _415  and  _417
REMARK  178  A    between atoms: _417  and  _418
REMARK  179  A    between atoms: _420  and  _422
REMARK  180  A    between atoms: _422  and  _423
REMARK  181  A    between atoms: _425  and  _427
REMARK  182  A    between atoms: _427  and  _428
REMARK  183  A    between atoms: _427  and  _430
REMARK  184  A    between atoms: _430  and  _431
REMARK  185  A    between atoms: _434  and  _436
REMARK  186  A    between atoms: _436  and  _437
REMARK  187  A    between atoms: _439  and  _441
REMARK  188  A    between atoms: _441  and  _442
REMARK  189  A    between atoms: _444  and  _446
REMARK  190  A    between atoms: _446  and  _447
REMARK  191  A    between atoms: _446  and  _449
REMARK  192  A    between atoms: _449  and  _450
REMARK  193  A    between atoms: _456  and  _458
REMARK  194  A    between atoms: _458  and  _459
REMARK  195  A    between atoms: _458  and  _461
REMARK  196  A    between atoms: _461  and  _462
REMARK  197  A    between atoms: _465  and  _467
REMARK  198  A    between atoms: _467  and  _468
REMARK  199  A    between atoms: _467  and  _470
REMARK  200  A    between atoms: _470  and  _471
REMARK  201  A    between atoms: _474  and  _476
REMARK  202  A    between atoms: _476  and  _477
REMARK  203  A    between atoms: _476  and  _479
REMARK  204  A    between atoms: _479  and  _480
REMARK  205  A    between atoms: _484  and  _485
REMARK  206  A    between atoms: _490  and  _492
REMARK  207  A    between atoms: _492  and  _493
REMARK  208  A    between atoms: _492  and  _495
REMARK  209  A    between atoms: _495  and  _496
REMARK  210  A    between atoms: _499  and  _501
REMARK  211  A    between atoms: _501  and  _502
REMARK  212  A    between atoms: _501  and  _504
REMARK  213  A    between atoms: _504  and  _505
REMARK  214  A    between atoms: _510  and  _512
REMARK  215  A    between atoms: _512  and  _513
REMARK  216  A    between atoms: _512  and  _515
REMARK  217  A    between atoms: _515  and  _516
REMARK  218  A    between atoms: _519  and  _521
REMARK  219  A    between atoms: _521  and  _522
REMARK  220  A    between atoms: _524  and  _526
REMARK  221  A    between atoms: _526  and  _527
REMARK  222  A    between atoms: _526  and  _529
REMARK  223  A    between atoms: _529  and  _530
REMARK  224  A    between atoms: _530  and  _531
REMARK  225  A    between atoms: _531  and  _532
REMARK  226  A    between atoms: _541  and  _543
REMARK  227  A    between atoms: _543  and  _544
REMARK  228  A    between atoms: _543  and  _546
REMARK  229  A    between atoms: _546  and  _547
REMARK                            x       y       z     vdW  Elec       q    Type
REMARK                         _______ _______ _______ _____ _____    ______ ____
ROOT
ATOM      1  O   HOH     1       7.473  23.868  18.335  0.00  0.00    +0.000 OA
ENDROOT
TORSDOF 0
REMARK  Name = ../refined-set-2016/3s54/3s54_pocket.pdb
REMARK  229 active torsions:
REMARK  status: ('A' for Active; 'I' for Inactive)
REMARK    1  A    between atoms: _1  and  _3
REMARK    2  A    between atoms: _3  and  _4
REMARK    3  A    between atoms: _3  and  _6
REMARK    4  A    between atoms: _6  and  _7
REMARK    5  A    between atoms: _7  and  _8
REMARK    6  A    between atoms: _8  and  _9
REMARK    7  A    between atoms: _18  and  _20
REMARK    8  A    between atoms: _20  and  _21
REMARK    9  A    between atoms: _20  and  _23
REMARK   10  A    between atoms: _23  and  _24
REMARK   11  A    between atoms: _27  and  _29
REMARK   12  A    between atoms: _29  and  _30
REMARK   13  A    between atoms: _29  and  _32
REMARK   14  A    between atoms: _32  and  _33
REMARK   15  A    between atoms: _36  and  _38
REMARK   16  A    between atoms: _38  and  _39
REMARK   17  A    between atoms: _38  and  _41
REMARK   18  A    between atoms: _41  and  _42
REMARK   19  A    between atoms: _45  and  _47
REMARK   20  A    between atoms: _47  and  _48
REMARK   21  A    between atoms: _47  and  _50
REMARK   22  A    between atoms: _50  and  _51
REMARK   23  A    between atoms: _54  and  _56
REMARK   24  A    between atoms: _56  and  _57
REMARK   25  A    between atoms: _59  and  _61
REMARK   26  A    between atoms: _61  and  _62
REMARK   27  A    between atoms: _65  and  _67
REMARK   28  A    between atoms: _67  and  _68
REMARK   29  A    between atoms: _67  and  _70
REMARK   30  A    between atoms: _70  and  _71
REMARK   31  A    between atoms: _74  and  _76
REMARK   32  A    between atoms: _76  and  _77
REMARK   33  A    between atoms: _76  and  _79
REMARK   34  A    between atoms: _79  and  _80
REMARK   35  A    between atoms: _80  and  _82
REMARK   36  A    between atoms: _83  and  _85
REMARK   37  A    between atoms: _85  and  _86
REMARK   38  A    between atoms: _85  and  _88
REMARK   39  A    between atoms: _88  and  _89
REMARK   40  A    between atoms: _92  and  _94
REMARK   41  A    between atoms: _94  and  _95
REMARK   42  A    between atoms: _94  and  _97
REMARK   43  A    between atoms: _97  and  _98
REMARK   44  A    between atoms: _101  and  _103
REMARK   45  A    between atoms: _103  and  _104
REMARK   46  A    between atoms: _103  and  _106
REMARK   47  A    between atoms: _106  and  _107
REMARK   48  A    between atoms: _107  and  _108
REMARK   49  A    between atoms: _108  and  _109
REMARK   50  A    between atoms: _109  and  _110
REMARK   51  A    between atoms: _114  and  _116
REMARK   52  A    between atoms: _116  and  _117
REMARK   53  A    between atoms: _116  and  _119
REMARK   54  A    between atoms: _119  and  _120
REMARK   55  A    between atoms: _120  and  _121
REMARK   56  A    between atoms: _123  and  _125
REMARK   57  A    between atoms: _125  and  _126
REMARK   58  A    between atoms: _125  and  _128
REMARK   59  A    between atoms: _131  and  _133
REMARK   60  A    between atoms: _133  and  _134
REMARK   61  A    between atoms: _136  and  _138
REMARK   62  A    between atoms: _138  and  _139
REMARK   63  A    between atoms: _141  and  _143
REMARK   64  A    between atoms: _143  and  _144
REMARK   65  A    between atoms: _143  and  _146
REMARK   66  A    between atoms: _146  and  _147
REMARK   67  A    between atoms: _150  and  _152
REMARK   68  A    between atoms: _152  and  _153
REMARK   69  A    between atoms: _155  and  _157
REMARK   70  A    between atoms: _157  and  _158
REMARK   71  A    between atoms: _160  and  _162
REMARK   72  A    between atoms: _162  and  _163
REMARK   73  A    between atoms: _162  and  _165
REMARK   74  A    between atoms: _165  and  _166
REMARK   75  A    between atoms: _172  and  _174
REMARK   76  A    between atoms: _174  and  _175
REMARK   77  A    between atoms: _174  and  _177
REMARK   78  A    between atoms: _177  and  _178
REMARK   79  A    between atoms: _181  and  _183
REMARK   80  A    between atoms: _183  and  _184
REMARK   81  A    between atoms: _183  and  _186
REMARK   82  A    between atoms: _189  and  _191
REMARK   83  A    between atoms: _191  and  _192
REMARK   84  A    between atoms: _191  and  _194
REMARK   85  A    between atoms: _194  and  _195
REMARK   86  A    between atoms: _198  and  _200
REMARK   87  A    between atoms: _200  and  _201
REMARK   88  A    between atoms: _200  and  _203
REMARK   89  A    between atoms: _203  and  _204
REMARK   90  A    between atoms: _208  and  _209
REMARK   91  A    between atoms: _214  and  _216
REMARK   92  A    between atoms: _216  and  _217
REMARK   93  A    between atoms: _216  and  _219
REMARK   94  A    between atoms: _219  and  _220
REMARK   95  A    between atoms: _223  and  _225
REMARK   96  A    between atoms: _225  and  _226
REMARK   97  A    between atoms: _225  and  _228
REMARK   98  A    between atoms: _228  and  _229
REMARK   99  A    between atoms: _234  and  _236
REMARK  100  A    between atoms: _236  and  _237
REMARK  101  A    between atoms: _236  and  _239
REMARK  102  A    between atoms: _239  and  _240
REMARK  103  A    between atoms: _243  and  _245
REMARK  104  A    between atoms: _245  and  _246
REMARK  105  A    between atoms: _245  and  _248
REMARK  106  A    between atoms: _248  and  _249
REMARK  107  A    between atoms: _252  and  _254
REMARK  108  A    between atoms: _254  and  _255
REMARK  109  A    between atoms: _257  and  _259
REMARK  110  A    between atoms: _259  and  _260
REMARK  111  A    between atoms: _259  and  _262
REMARK  112  A    between atoms: _262  and  _263
REMARK  113  A    between atoms: _263  and  _264
REMARK  114  A    between atoms: _264  and  _265
REMARK  115  A    between atoms: _274  and  _276
REMARK  116  A    between atoms: _276  and  _277
REMARK  117  A    between atoms: _276  and  _279
REMARK  118  A    between atoms: _279  and  _280
REMARK  119  A    between atoms: _285  and  _287
REMARK  120  A    between atoms: _287  and  _288
REMARK  121  A    between atoms: _287  and  _290
REMARK  122  A    between atoms: _290  and  _291
REMARK  123  A    between atoms: _291  and  _292
REMARK  124  A    between atoms: _292  and  _293
REMARK  125  A    between atoms: _302  and  _304
REMARK  126  A    between atoms: _304  and  _305
REMARK  127  A    between atoms: _304  and  _307
REMARK  128  A    between atoms: _307  and  _308
REMARK  129  A    between atoms: _311  and  _313
REMARK  130  A    between atoms: _313  and  _314
REMARK  131  A    between atoms: _313  and  _316
REMARK  132  A    between atoms: _316  and  _317
REMARK  133  A    between atoms: _320  and  _322
REMARK  134  A    between atoms: _322  and  _323
REMARK  135  A    between atoms: _322  and  _325
REMARK  136  A    between atoms: _325  and  _326
REMARK  137  A    between atoms: _329  and  _331
REMARK  138  A    between atoms: _331  and  _332
REMARK  139  A    between atoms: _331  and  _334
REMARK  140  A    between atoms: _334  and  _335
REMARK  141  A    between atoms: _338  and  _340
REMARK  142  A    between atoms: _340  and  _341
REMARK  143  A    between atoms: _343  and  _345
REMARK  144  A    between atoms: _345  and  _346
REMARK  145  A    between atoms: _349  and  _351
REMARK  146  A    between atoms: _351  and  _352
REMARK  147  A    between atoms: _351  and  _354
REMARK  148  A    between atoms: _354  and  _355
REMARK  149  A    between atoms: _358  and  _360
REMARK  150  A    between atoms: _360  and  _361
REMARK  151  A    between atoms: _360  and  _363
REMARK  152  A    between atoms: _363  and  _364
REMARK  153  A    between atoms: _364  and  _366
REMARK  154  A    between atoms: _367  and  _369
REMARK  155  A    between atoms: _369  and  _370
REMARK  156  A    between atoms: _369  and  _372
REMARK  157  A    between atoms: _372  and  _373
REMARK  158  A    between atoms: _376  and  _378
REMARK  159  A    between atoms: _378  and  _379
REMARK  160  A    between atoms: _378  and  _381
REMARK  161  A    between atoms: _381  and  _382
REMARK  162  A    between atoms: _385  and  _387
REMARK  163  A    between atoms: _387  and  _388
REMARK  164  A    between atoms: _387  and  _390
REMARK  165  A    between atoms: _390  and  _391
REMARK  166  A    between atoms: _391  and  _392
REMARK  167  A    between atoms: _392  and  _393
REMARK  168  A    between atoms: _393  and  _394
REMARK  169  A    between atoms: _398  and  _400
REMARK  170  A    between atoms: _400  and  _401
REMARK  171  A    between atoms: _400  and  _403
REMARK  172  A    between atoms: _403  and  _404
REMARK  173  A    between atoms: _404  and  _405
REMARK  174  A    between atoms: _407  and  _409
REMARK  175  A    between atoms: _409  and  _410
REMARK  176  A    between atoms: _409  and  _412
REMARK  177  A    between atoms: _415  and  _417
REMARK  178  A    between atoms: _417  and  _418
REMARK  179  A    between atoms: _420  and  _422
REMARK  180  A    between atoms: _422  and  _423
REMARK  181  A    between atoms: _425  and  _427
REMARK  182  A    between atoms: _427  and  _428
REMARK  183  A    between atoms: _427  and  _430
REMARK  184  A    between atoms: _430  and  _431
REMARK  185  A    between atoms: _434  and  _436
REMARK  186  A    between atoms: _436  and  _437
REMARK  187  A    between atoms: _439  and  _441
REMARK  188  A    between atoms: _441  and  _442
REMARK  189  A    between atoms: _444  and  _446
REMARK  190  A    between atoms: _446  and  _447
REMARK  191  A    between atoms: _446  and  _449
REMARK  192  A    between atoms: _449  and  _450
REMARK  193  A    between atoms: _456  and  _458
REMARK  194  A    between atoms: _458  and  _459
REMARK  195  A    between atoms: _458  and  _461
REMARK  196  A    between atoms: _461  and  _462
REMARK  197  A    between atoms: _465  and  _467
REMARK  198  A    between atoms: _467  and  _468
REMARK  199  A    between atoms: _467  and  _470
REMARK  200  A    between atoms: _470  and  _471
REMARK  201  A    between atoms: _474  and  _476
REMARK  202  A    between atoms: _476  and  _477
REMARK  203  A    between atoms: _476  and  _479
REMARK  204  A    between atoms: _479  and  _480
REMARK  205  A    between atoms: _484  and  _485
REMARK  206  A    between atoms: _490  and  _492
REMARK  207  A    between atoms: _492  and  _493
REMARK  208  A    between atoms: _492  and  _495
REMARK  209  A    between atoms: _495  and  _496
REMARK  210  A    between atoms: _499  and  _501
REMARK  211  A    between atoms: _501  and  _502
REMARK  212  A    between atoms: _501  and  _504
REMARK  213  A    between atoms: _504  and  _505
REMARK  214  A    between atoms: _510  and  _512
REMARK  215  A    between atoms: _512  and  _513
REMARK  216  A    between atoms: _512  and  _515
REMARK  217  A    between atoms: _515  and  _516
REMARK  218  A    between atoms: _519  and  _521
REMARK  219  A    between atoms: _521  and  _522
REMARK  220  A    between atoms: _524  and  _526
REMARK  221  A    between atoms: _526  and  _527
REMARK  222  A    between atoms: _526  and  _529
REMARK  223  A    between atoms: _529  and  _530
REMARK  224  A    between atoms: _530  and  _531
REMARK  225  A    between atoms: _531  and  _532
REMARK  226  A    between atoms: _541  and  _543
REMARK  227  A    between atoms: _543  and  _544
REMARK  228  A    between atoms: _543  and  _546
REMARK  229  A    between atoms: _546  and  _547
REMARK                            x       y       z     vdW  Elec       q    Type
REMARK                         _______ _______ _______ _____ _____    ______ ____
ROOT
ATOM      1  O   HOH     1      11.094  14.597  16.969  0.00  0.00    +0.000 OA
ENDROOT
TORSDOF 0
REMARK  Name = ../refined-set-2016/3s54/3s54_pocket.pdb
REMARK  229 active torsions:
REMARK  status: ('A' for Active; 'I' for Inactive)
REMARK    1  A    between atoms: _1  and  _3
REMARK    2  A    between atoms: _3  and  _4
REMARK    3  A    between atoms: _3  and  _6
REMARK    4  A    between atoms: _6  and  _7
REMARK    5  A    between atoms: _7  and  _8
REMARK    6  A    between atoms: _8  and  _9
REMARK    7  A    between atoms: _18  and  _20
REMARK    8  A    between atoms: _20  and  _21
REMARK    9  A    between atoms: _20  and  _23
REMARK   10  A    between atoms: _23  and  _24
REMARK   11  A    between atoms: _27  and  _29
REMARK   12  A    between atoms: _29  and  _30
REMARK   13  A    between atoms: _29  and  _32
REMARK   14  A    between atoms: _32  and  _33
REMARK   15  A    between atoms: _36  and  _38
REMARK   16  A    between atoms: _38  and  _39
REMARK   17  A    between atoms: _38  and  _41
REMARK   18  A    between atoms: _41  and  _42
REMARK   19  A    between atoms: _45  and  _47
REMARK   20  A    between atoms: _47  and  _48
REMARK   21  A    between atoms: _47  and  _50
REMARK   22  A    between atoms: _50  and  _51
REMARK   23  A    between atoms: _54  and  _56
REMARK   24  A    between atoms: _56  and  _57
REMARK   25  A    between atoms: _59  and  _61
REMARK   26  A    between atoms: _61  and  _62
REMARK   27  A    between atoms: _65  and  _67
REMARK   28  A    between atoms: _67  and  _68
REMARK   29  A    between atoms: _67  and  _70
REMARK   30  A    between atoms: _70  and  _71
REMARK   31  A    between atoms: _74  and  _76
REMARK   32  A    between atoms: _76  and  _77
REMARK   33  A    between atoms: _76  and  _79
REMARK   34  A    between atoms: _79  and  _80
REMARK   35  A    between atoms: _80  and  _82
REMARK   36  A    between atoms: _83  and  _85
REMARK   37  A    between atoms: _85  and  _86
REMARK   38  A    between atoms: _85  and  _88
REMARK   39  A    between atoms: _88  and  _89
REMARK   40  A    between atoms: _92  and  _94
REMARK   41  A    between atoms: _94  and  _95
REMARK   42  A    between atoms: _94  and  _97
REMARK   43  A    between atoms: _97  and  _98
REMARK   44  A    between atoms: _101  and  _103
REMARK   45  A    between atoms: _103  and  _104
REMARK   46  A    between atoms: _103  and  _106
REMARK   47  A    between atoms: _106  and  _107
REMARK   48  A    between atoms: _107  and  _108
REMARK   49  A    between atoms: _108  and  _109
REMARK   50  A    between atoms: _109  and  _110
REMARK   51  A    between atoms: _114  and  _116
REMARK   52  A    between atoms: _116  and  _117
REMARK   53  A    between atoms: _116  and  _119
REMARK   54  A    between atoms: _119  and  _120
REMARK   55  A    between atoms: _120  and  _121
REMARK   56  A    between atoms: _123  and  _125
REMARK   57  A    between atoms: _125  and  _126
REMARK   58  A    between atoms: _125  and  _128
REMARK   59  A    between atoms: _131  and  _133
REMARK   60  A    between atoms: _133  and  _134
REMARK   61  A    between atoms: _136  and  _138
REMARK   62  A    between atoms: _138  and  _139
REMARK   63  A    between atoms: _141  and  _143
REMARK   64  A    between atoms: _143  and  _144
REMARK   65  A    between atoms: _143  and  _146
REMARK   66  A    between atoms: _146  and  _147
REMARK   67  A    between atoms: _150  and  _152
REMARK   68  A    between atoms: _152  and  _153
REMARK   69  A    between atoms: _155  and  _157
REMARK   70  A    between atoms: _157  and  _158
REMARK   71  A    between atoms: _160  and  _162
REMARK   72  A    between atoms: _162  and  _163
REMARK   73  A    between atoms: _162  and  _165
REMARK   74  A    between atoms: _165  and  _166
REMARK   75  A    between atoms: _172  and  _174
REMARK   76  A    between atoms: _174  and  _175
REMARK   77  A    between atoms: _174  and  _177
REMARK   78  A    between atoms: _177  and  _178
REMARK   79  A    between atoms: _181  and  _183
REMARK   80  A    between atoms: _183  and  _184
REMARK   81  A    between atoms: _183  and  _186
REMARK   82  A    between atoms: _189  and  _191
REMARK   83  A    between atoms: _191  and  _192
REMARK   84  A    between atoms: _191  and  _194
REMARK   85  A    between atoms: _194  and  _195
REMARK   86  A    between atoms: _198  and  _200
REMARK   87  A    between atoms: _200  and  _201
REMARK   88  A    between atoms: _200  and  _203
REMARK   89  A    between atoms: _203  and  _204
REMARK   90  A    between atoms: _208  and  _209
REMARK   91  A    between atoms: _214  and  _216
REMARK   92  A    between atoms: _216  and  _217
REMARK   93  A    between atoms: _216  and  _219
REMARK   94  A    between atoms: _219  and  _220
REMARK   95  A    between atoms: _223  and  _225
REMARK   96  A    between atoms: _225  and  _226
REMARK   97  A    between atoms: _225  and  _228
REMARK   98  A    between atoms: _228  and  _229
REMARK   99  A    between atoms: _234  and  _236
REMARK  100  A    between atoms: _236  and  _237
REMARK  101  A    between atoms: _236  and  _239
REMARK  102  A    between atoms: _239  and  _240
REMARK  103  A    between atoms: _243  and  _245
REMARK  104  A    between atoms: _245  and  _246
REMARK  105  A    between atoms: _245  and  _248
REMARK  106  A    between atoms: _248  and  _249
REMARK  107  A    between atoms: _252  and  _254
REMARK  108  A    between atoms: _254  and  _255
REMARK  109  A    between atoms: _257  and  _259
REMARK  110  A    between atoms: _259  and  _260
REMARK  111  A    between atoms: _259  and  _262
REMARK  112  A    between atoms: _262  and  _263
REMARK  113  A    between atoms: _263  and  _264
REMARK  114  A    between atoms: _264  and  _265
REMARK  115  A    between atoms: _274  and  _276
REMARK  116  A    between atoms: _276  and  _277
REMARK  117  A    between atoms: _276  and  _279
REMARK  118  A    between atoms: _279  and  _280
REMARK  119  A    between atoms: _285  and  _287
REMARK  120  A    between atoms: _287  and  _288
REMARK  121  A    between atoms: _287  and  _290
REMARK  122  A    between atoms: _290  and  _291
REMARK  123  A    between atoms: _291  and  _292
REMARK  124  A    between atoms: _292  and  _293
REMARK  125  A    between atoms: _302  and  _304
REMARK  126  A    between atoms: _304  and  _305
REMARK  127  A    between atoms: _304  and  _307
REMARK  128  A    between atoms: _307  and  _308
REMARK  129  A    between atoms: _311  and  _313
REMARK  130  A    between atoms: _313  and  _314
REMARK  131  A    between atoms: _313  and  _316
REMARK  132  A    between atoms: _316  and  _317
REMARK  133  A    between atoms: _320  and  _322
REMARK  134  A    between atoms: _322  and  _323
REMARK  135  A    between atoms: _322  and  _325
REMARK  136  A    between atoms: _325  and  _326
REMARK  137  A    between atoms: _329  and  _331
REMARK  138  A    between atoms: _331  and  _332
REMARK  139  A    between atoms: _331  and  _334
REMARK  140  A    between atoms: _334  and  _335
REMARK  141  A    between atoms: _338  and  _340
REMARK  142  A    between atoms: _340  and  _341
REMARK  143  A    between atoms: _343  and  _345
REMARK  144  A    between atoms: _345  and  _346
REMARK  145  A    between atoms: _349  and  _351
REMARK  146  A    between atoms: _351  and  _352
REMARK  147  A    between atoms: _351  and  _354
REMARK  148  A    between atoms: _354  and  _355
REMARK  149  A    between atoms: _358  and  _360
REMARK  150  A    between atoms: _360  and  _361
REMARK  151  A    between atoms: _360  and  _363
REMARK  152  A    between atoms: _363  and  _364
REMARK  153  A    between atoms: _364  and  _366
REMARK  154  A    between atoms: _367  and  _369
REMARK  155  A    between atoms: _369  and  _370
REMARK  156  A    between atoms: _369  and  _372
REMARK  157  A    between atoms: _372  and  _373
REMARK  158  A    between atoms: _376  and  _378
REMARK  159  A    between atoms: _378  and  _379
REMARK  160  A    between atoms: _378  and  _381
REMARK  161  A    between atoms: _381  and  _382
REMARK  162  A    between atoms: _385  and  _387
REMARK  163  A    between atoms: _387  and  _388
REMARK  164  A    between atoms: _387  and  _390
REMARK  165  A    between atoms: _390  and  _391
REMARK  166  A    between atoms: _391  and  _392
REMARK  167  A    between atoms: _392  and  _393
REMARK  168  A    between atoms: _393  and  _394
REMARK  169  A    between atoms: _398  and  _400
REMARK  170  A    between atoms: _400  and  _401
REMARK  171  A    between atoms: _400  and  _403
REMARK  172  A    between atoms: _403  and  _404
REMARK  173  A    between atoms: _404  and  _405
REMARK  174  A    between atoms: _407  and  _409
REMARK  175  A    between atoms: _409  and  _410
REMARK  176  A    between atoms: _409  and  _412
REMARK  177  A    between atoms: _415  and  _417
REMARK  178  A    between atoms: _417  and  _418
REMARK  179  A    between atoms: _420  and  _422
REMARK  180  A    between atoms: _422  and  _423
REMARK  181  A    between atoms: _425  and  _427
REMARK  182  A    between atoms: _427  and  _428
REMARK  183  A    between atoms: _427  and  _430
REMARK  184  A    between atoms: _430  and  _431
REMARK  185  A    between atoms: _434  and  _436
REMARK  186  A    between atoms: _436  and  _437
REMARK  187  A    between atoms: _439  and  _441
REMARK  188  A    between atoms: _441  and  _442
REMARK  189  A    between atoms: _444  and  _446
REMARK  190  A    between atoms: _446  and  _447
REMARK  191  A    between atoms: _446  and  _449
REMARK  192  A    between atoms: _449  and  _450
REMARK  193  A    between atoms: _456  and  _458
REMARK  194  A    between atoms: _458  and  _459
REMARK  195  A    between atoms: _458  and  _461
REMARK  196  A    between atoms: _461  and  _462
REMARK  197  A    between atoms: _465  and  _467
REMARK  198  A    between atoms: _467  and  _468
REMARK  199  A    between atoms: _467  and  _470
REMARK  200  A    between atoms: _470  and  _471
REMARK  201  A    between atoms: _474  and  _476
REMARK  202  A    between atoms: _476  and  _477
REMARK  203  A    between atoms: _476  and  _479
REMARK  204  A    between atoms: _479  and  _480
REMARK  205  A    between atoms: _484  and  _485
REMARK  206  A    between atoms: _490  and  _492
REMARK  207  A    between atoms: _492  and  _493
REMARK  208  A    between atoms: _492  and  _495
REMARK  209  A    between atoms: _495  and  _496
REMARK  210  A    between atoms: _499  and  _501
REMARK  211  A    between atoms: _501  and  _502
REMARK  212  A    between atoms: _501  and  _504
REMARK  213  A    between atoms: _504  and  _505
REMARK  214  A    between atoms: _510  and  _512
REMARK  215  A    between atoms: _512  and  _513
REMARK  216  A    between atoms: _512  and  _515
REMARK  217  A    between atoms: _515  and  _516
REMARK  218  A    between atoms: _519  and  _521
REMARK  219  A    between atoms: _521  and  _522
REMARK  220  A    between atoms: _524  and  _526
REMARK  221  A    between atoms: _526  and  _527
REMARK  222  A    between atoms: _526  and  _529
REMARK  223  A    between atoms: _529  and  _530
REMARK  224  A    between atoms: _530  and  _531
REMARK  225  A    between atoms: _531  and  _532
REMARK  226  A    between atoms: _541  and  _543
REMARK  227  A    between atoms: _543  and  _544
REMARK  228  A    between atoms: _543  and  _546
REMARK  229  A    between atoms: _546  and  _547
REMARK                            x       y       z     vdW  Elec       q    Type
REMARK                         _______ _______ _______ _____ _____    ______ ____
ROOT
ATOM      1  O   HOH     1       8.729  22.171  16.786  0.00  0.00    +0.000 OA
ENDROOT
TORSDOF 0
REMARK  Name = ../refined-set-2016/3s54/3s54_pocket.pdb
REMARK  229 active torsions:
REMARK  status: ('A' for Active; 'I' for Inactive)
REMARK    1  A    between atoms: _1  and  _3
REMARK    2  A    between atoms: _3  and  _4
REMARK    3  A    between atoms: _3  and  _6
REMARK    4  A    between atoms: _6  and  _7
REMARK    5  A    between atoms: _7  and  _8
REMARK    6  A    between atoms: _8  and  _9
REMARK    7  A    between atoms: _18  and  _20
REMARK    8  A    between atoms: _20  and  _21
REMARK    9  A    between atoms: _20  and  _23
REMARK   10  A    between atoms: _23  and  _24
REMARK   11  A    between atoms: _27  and  _29
REMARK   12  A    between atoms: _29  and  _30
REMARK   13  A    between atoms: _29  and  _32
REMARK   14  A    between atoms: _32  and  _33
REMARK   15  A    between atoms: _36  and  _38
REMARK   16  A    between atoms: _38  and  _39
REMARK   17  A    between atoms: _38  and  _41
REMARK   18  A    between atoms: _41  and  _42
REMARK   19  A    between atoms: _45  and  _47
REMARK   20  A    between atoms: _47  and  _48
REMARK   21  A    between atoms: _47  and  _50
REMARK   22  A    between atoms: _50  and  _51
REMARK   23  A    between atoms: _54  and  _56
REMARK   24  A    between atoms: _56  and  _57
REMARK   25  A    between atoms: _59  and  _61
REMARK   26  A    between atoms: _61  and  _62
REMARK   27  A    between atoms: _65  and  _67
REMARK   28  A    between atoms: _67  and  _68
REMARK   29  A    between atoms: _67  and  _70
REMARK   30  A    between atoms: _70  and  _71
REMARK   31  A    between atoms: _74  and  _76
REMARK   32  A    between atoms: _76  and  _77
REMARK   33  A    between atoms: _76  and  _79
REMARK   34  A    between atoms: _79  and  _80
REMARK   35  A    between atoms: _80  and  _82
REMARK   36  A    between atoms: _83  and  _85
REMARK   37  A    between atoms: _85  and  _86
REMARK   38  A    between atoms: _85  and  _88
REMARK   39  A    between atoms: _88  and  _89
REMARK   40  A    between atoms: _92  and  _94
REMARK   41  A    between atoms: _94  and  _95
REMARK   42  A    between atoms: _94  and  _97
REMARK   43  A    between atoms: _97  and  _98
REMARK   44  A    between atoms: _101  and  _103
REMARK   45  A    between atoms: _103  and  _104
REMARK   46  A    between atoms: _103  and  _106
REMARK   47  A    between atoms: _106  and  _107
REMARK   48  A    between atoms: _107  and  _108
REMARK   49  A    between atoms: _108  and  _109
REMARK   50  A    between atoms: _109  and  _110
REMARK   51  A    between atoms: _114  and  _116
REMARK   52  A    between atoms: _116  and  _117
REMARK   53  A    between atoms: _116  and  _119
REMARK   54  A    between atoms: _119  and  _120
REMARK   55  A    between atoms: _120  and  _121
REMARK   56  A    between atoms: _123  and  _125
REMARK   57  A    between atoms: _125  and  _126
REMARK   58  A    between atoms: _125  and  _128
REMARK   59  A    between atoms: _131  and  _133
REMARK   60  A    between atoms: _133  and  _134
REMARK   61  A    between atoms: _136  and  _138
REMARK   62  A    between atoms: _138  and  _139
REMARK   63  A    between atoms: _141  and  _143
REMARK   64  A    between atoms: _143  and  _144
REMARK   65  A    between atoms: _143  and  _146
REMARK   66  A    between atoms: _146  and  _147
REMARK   67  A    between atoms: _150  and  _152
REMARK   68  A    between atoms: _152  and  _153
REMARK   69  A    between atoms: _155  and  _157
REMARK   70  A    between atoms: _157  and  _158
REMARK   71  A    between atoms: _160  and  _162
REMARK   72  A    between atoms: _162  and  _163
REMARK   73  A    between atoms: _162  and  _165
REMARK   74  A    between atoms: _165  and  _166
REMARK   75  A    between atoms: _172  and  _174
REMARK   76  A    between atoms: _174  and  _175
REMARK   77  A    between atoms: _174  and  _177
REMARK   78  A    between atoms: _177  and  _178
REMARK   79  A    between atoms: _181  and  _183
REMARK   80  A    between atoms: _183  and  _184
REMARK   81  A    between atoms: _183  and  _186
REMARK   82  A    between atoms: _189  and  _191
REMARK   83  A    between atoms: _191  and  _192
REMARK   84  A    between atoms: _191  and  _194
REMARK   85  A    between atoms: _194  and  _195
REMARK   86  A    between atoms: _198  and  _200
REMARK   87  A    between atoms: _200  and  _201
REMARK   88  A    between atoms: _200  and  _203
REMARK   89  A    between atoms: _203  and  _204
REMARK   90  A    between atoms: _208  and  _209
REMARK   91  A    between atoms: _214  and  _216
REMARK   92  A    between atoms: _216  and  _217
REMARK   93  A    between atoms: _216  and  _219
REMARK   94  A    between atoms: _219  and  _220
REMARK   95  A    between atoms: _223  and  _225
REMARK   96  A    between atoms: _225  and  _226
REMARK   97  A    between atoms: _225  and  _228
REMARK   98  A    between atoms: _228  and  _229
REMARK   99  A    between atoms: _234  and  _236
REMARK  100  A    between atoms: _236  and  _237
REMARK  101  A    between atoms: _236  and  _239
REMARK  102  A    between atoms: _239  and  _240
REMARK  103  A    between atoms: _243  and  _245
REMARK  104  A    between atoms: _245  and  _246
REMARK  105  A    between atoms: _245  and  _248
REMARK  106  A    between atoms: _248  and  _249
REMARK  107  A    between atoms: _252  and  _254
REMARK  108  A    between atoms: _254  and  _255
REMARK  109  A    between atoms: _257  and  _259
REMARK  110  A    between atoms: _259  and  _260
REMARK  111  A    between atoms: _259  and  _262
REMARK  112  A    between atoms: _262  and  _263
REMARK  113  A    between atoms: _263  and  _264
REMARK  114  A    between atoms: _264  and  _265
REMARK  115  A    between atoms: _274  and  _276
REMARK  116  A    between atoms: _276  and  _277
REMARK  117  A    between atoms: _276  and  _279
REMARK  118  A    between atoms: _279  and  _280
REMARK  119  A    between atoms: _285  and  _287
REMARK  120  A    between atoms: _287  and  _288
REMARK  121  A    between atoms: _287  and  _290
REMARK  122  A    between atoms: _290  and  _291
REMARK  123  A    between atoms: _291  and  _292
REMARK  124  A    between atoms: _292  and  _293
REMARK  125  A    between atoms: _302  and  _304
REMARK  126  A    between atoms: _304  and  _305
REMARK  127  A    between atoms: _304  and  _307
REMARK  128  A    between atoms: _307  and  _308
REMARK  129  A    between atoms: _311  and  _313
REMARK  130  A    between atoms: _313  and  _314
REMARK  131  A    between atoms: _313  and  _316
REMARK  132  A    between atoms: _316  and  _317
REMARK  133  A    between atoms: _320  and  _322
REMARK  134  A    between atoms: _322  and  _323
REMARK  135  A    between atoms: _322  and  _325
REMARK  136  A    between atoms: _325  and  _326
REMARK  137  A    between atoms: _329  and  _331
REMARK  138  A    between atoms: _331  and  _332
REMARK  139  A    between atoms: _331  and  _334
REMARK  140  A    between atoms: _334  and  _335
REMARK  141  A    between atoms: _338  and  _340
REMARK  142  A    between atoms: _340  and  _341
REMARK  143  A    between atoms: _343  and  _345
REMARK  144  A    between atoms: _345  and  _346
REMARK  145  A    between atoms: _349  and  _351
REMARK  146  A    between atoms: _351  and  _352
REMARK  147  A    between atoms: _351  and  _354
REMARK  148  A    between atoms: _354  and  _355
REMARK  149  A    between atoms: _358  and  _360
REMARK  150  A    between atoms: _360  and  _361
REMARK  151  A    between atoms: _360  and  _363
REMARK  152  A    between atoms: _363  and  _364
REMARK  153  A    between atoms: _364  and  _366
REMARK  154  A    between atoms: _367  and  _369
REMARK  155  A    between atoms: _369  and  _370
REMARK  156  A    between atoms: _369  and  _372
REMARK  157  A    between atoms: _372  and  _373
REMARK  158  A    between atoms: _376  and  _378
REMARK  159  A    between atoms: _378  and  _379
REMARK  160  A    between atoms: _378  and  _381
REMARK  161  A    between atoms: _381  and  _382
REMARK  162  A    between atoms: _385  and  _387
REMARK  163  A    between atoms: _387  and  _388
REMARK  164  A    between atoms: _387  and  _390
REMARK  165  A    between atoms: _390  and  _391
REMARK  166  A    between atoms: _391  and  _392
REMARK  167  A    between atoms: _392  and  _393
REMARK  168  A    between atoms: _393  and  _394
REMARK  169  A    between atoms: _398  and  _400
REMARK  170  A    between atoms: _400  and  _401
REMARK  171  A    between atoms: _400  and  _403
REMARK  172  A    between atoms: _403  and  _404
REMARK  173  A    between atoms: _404  and  _405
REMARK  174  A    between atoms: _407  and  _409
REMARK  175  A    between atoms: _409  and  _410
REMARK  176  A    between atoms: _409  and  _412
REMARK  177  A    between atoms: _415  and  _417
REMARK  178  A    between atoms: _417  and  _418
REMARK  179  A    between atoms: _420  and  _422
REMARK  180  A    between atoms: _422  and  _423
REMARK  181  A    between atoms: _425  and  _427
REMARK  182  A    between atoms: _427  and  _428
REMARK  183  A    between atoms: _427  and  _430
REMARK  184  A    between atoms: _430  and  _431
REMARK  185  A    between atoms: _434  and  _436
REMARK  186  A    between atoms: _436  and  _437
REMARK  187  A    between atoms: _439  and  _441
REMARK  188  A    between atoms: _441  and  _442
REMARK  189  A    between atoms: _444  and  _446
REMARK  190  A    between atoms: _446  and  _447
REMARK  191  A    between atoms: _446  and  _449
REMARK  192  A    between atoms: _449  and  _450
REMARK  193  A    between atoms: _456  and  _458
REMARK  194  A    between atoms: _458  and  _459
REMARK  195  A    between atoms: _458  and  _461
REMARK  196  A    between atoms: _461  and  _462
REMARK  197  A    between atoms: _465  and  _467
REMARK  198  A    between atoms: _467  and  _468
REMARK  199  A    between atoms: _467  and  _470
REMARK  200  A    between atoms: _470  and  _471
REMARK  201  A    between atoms: _474  and  _476
REMARK  202  A    between atoms: _476  and  _477
REMARK  203  A    between atoms: _476  and  _479
REMARK  204  A    between atoms: _479  and  _480
REMARK  205  A    between atoms: _484  and  _485
REMARK  206  A    between atoms: _490  and  _492
REMARK  207  A    between atoms: _492  and  _493
REMARK  208  A    between atoms: _492  and  _495
REMARK  209  A    between atoms: _495  and  _496
REMARK  210  A    between atoms: _499  and  _501
REMARK  211  A    between atoms: _501  and  _502
REMARK  212  A    between atoms: _501  and  _504
REMARK  213  A    between atoms: _504  and  _505
REMARK  214  A    between atoms: _510  and  _512
REMARK  215  A    between atoms: _512  and  _513
REMARK  216  A    between atoms: _512  and  _515
REMARK  217  A    between atoms: _515  and  _516
REMARK  218  A    between atoms: _519  and  _521
REMARK  219  A    between atoms: _521  and  _522
REMARK  220  A    between atoms: _524  and  _526
REMARK  221  A    between atoms: _526  and  _527
REMARK  222  A    between atoms: _526  and  _529
REMARK  223  A    between atoms: _529  and  _530
REMARK  224  A    between atoms: _530  and  _531
REMARK  225  A    between atoms: _531  and  _532
REMARK  226  A    between atoms: _541  and  _543
REMARK  227  A    between atoms: _543  and  _544
REMARK  228  A    between atoms: _543  and  _546
REMARK  229  A    between atoms: _546  and  _547
REMARK                            x       y       z     vdW  Elec       q    Type
REMARK                         _______ _______ _______ _____ _____    ______ ____
ROOT
ATOM      1  O   HOH     1       4.532  18.712  22.711  0.00  0.00    +0.000 OA
ENDROOT
TORSDOF 0
REMARK  Name = ../refined-set-2016/3s54/3s54_pocket.pdb
REMARK  229 active torsions:
REMARK  status: ('A' for Active; 'I' for Inactive)
REMARK    1  A    between atoms: _1  and  _3
REMARK    2  A    between atoms: _3  and  _4
REMARK    3  A    between atoms: _3  and  _6
REMARK    4  A    between atoms: _6  and  _7
REMARK    5  A    between atoms: _7  and  _8
REMARK    6  A    between atoms: _8  and  _9
REMARK    7  A    between atoms: _18  and  _20
REMARK    8  A    between atoms: _20  and  _21
REMARK    9  A    between atoms: _20  and  _23
REMARK   10  A    between atoms: _23  and  _24
REMARK   11  A    between atoms: _27  and  _29
REMARK   12  A    between atoms: _29  and  _30
REMARK   13  A    between atoms: _29  and  _32
REMARK   14  A    between atoms: _32  and  _33
REMARK   15  A    between atoms: _36  and  _38
REMARK   16  A    between atoms: _38  and  _39
REMARK   17  A    between atoms: _38  and  _41
REMARK   18  A    between atoms: _41  and  _42
REMARK   19  A    between atoms: _45  and  _47
REMARK   20  A    between atoms: _47  and  _48
REMARK   21  A    between atoms: _47  and  _50
REMARK   22  A    between atoms: _50  and  _51
REMARK   23  A    between atoms: _54  and  _56
REMARK   24  A    between atoms: _56  and  _57
REMARK   25  A    between atoms: _59  and  _61
REMARK   26  A    between atoms: _61  and  _62
REMARK   27  A    between atoms: _65  and  _67
REMARK   28  A    between atoms: _67  and  _68
REMARK   29  A    between atoms: _67  and  _70
REMARK   30  A    between atoms: _70  and  _71
REMARK   31  A    between atoms: _74  and  _76
REMARK   32  A    between atoms: _76  and  _77
REMARK   33  A    between atoms: _76  and  _79
REMARK   34  A    between atoms: _79  and  _80
REMARK   35  A    between atoms: _80  and  _82
REMARK   36  A    between atoms: _83  and  _85
REMARK   37  A    between atoms: _85  and  _86
REMARK   38  A    between atoms: _85  and  _88
REMARK   39  A    between atoms: _88  and  _89
REMARK   40  A    between atoms: _92  and  _94
REMARK   41  A    between atoms: _94  and  _95
REMARK   42  A    between atoms: _94  and  _97
REMARK   43  A    between atoms: _97  and  _98
REMARK   44  A    between atoms: _101  and  _103
REMARK   45  A    between atoms: _103  and  _104
REMARK   46  A    between atoms: _103  and  _106
REMARK   47  A    between atoms: _106  and  _107
REMARK   48  A    between atoms: _107  and  _108
REMARK   49  A    between atoms: _108  and  _109
REMARK   50  A    between atoms: _109  and  _110
REMARK   51  A    between atoms: _114  and  _116
REMARK   52  A    between atoms: _116  and  _117
REMARK   53  A    between atoms: _116  and  _119
REMARK   54  A    between atoms: _119  and  _120
REMARK   55  A    between atoms: _120  and  _121
REMARK   56  A    between atoms: _123  and  _125
REMARK   57  A    between atoms: _125  and  _126
REMARK   58  A    between atoms: _125  and  _128
REMARK   59  A    between atoms: _131  and  _133
REMARK   60  A    between atoms: _133  and  _134
REMARK   61  A    between atoms: _136  and  _138
REMARK   62  A    between atoms: _138  and  _139
REMARK   63  A    between atoms: _141  and  _143
REMARK   64  A    between atoms: _143  and  _144
REMARK   65  A    between atoms: _143  and  _146
REMARK   66  A    between atoms: _146  and  _147
REMARK   67  A    between atoms: _150  and  _152
REMARK   68  A    between atoms: _152  and  _153
REMARK   69  A    between atoms: _155  and  _157
REMARK   70  A    between atoms: _157  and  _158
REMARK   71  A    between atoms: _160  and  _162
REMARK   72  A    between atoms: _162  and  _163
REMARK   73  A    between atoms: _162  and  _165
REMARK   74  A    between atoms: _165  and  _166
REMARK   75  A    between atoms: _172  and  _174
REMARK   76  A    between atoms: _174  and  _175
REMARK   77  A    between atoms: _174  and  _177
REMARK   78  A    between atoms: _177  and  _178
REMARK   79  A    between atoms: _181  and  _183
REMARK   80  A    between atoms: _183  and  _184
REMARK   81  A    between atoms: _183  and  _186
REMARK   82  A    between atoms: _189  and  _191
REMARK   83  A    between atoms: _191  and  _192
REMARK   84  A    between atoms: _191  and  _194
REMARK   85  A    between atoms: _194  and  _195
REMARK   86  A    between atoms: _198  and  _200
REMARK   87  A    between atoms: _200  and  _201
REMARK   88  A    between atoms: _200  and  _203
REMARK   89  A    between atoms: _203  and  _204
REMARK   90  A    between atoms: _208  and  _209
REMARK   91  A    between atoms: _214  and  _216
REMARK   92  A    between atoms: _216  and  _217
REMARK   93  A    between atoms: _216  and  _219
REMARK   94  A    between atoms: _219  and  _220
REMARK   95  A    between atoms: _223  and  _225
REMARK   96  A    between atoms: _225  and  _226
REMARK   97  A    between atoms: _225  and  _228
REMARK   98  A    between atoms: _228  and  _229
REMARK   99  A    between atoms: _234  and  _236
REMARK  100  A    between atoms: _236  and  _237
REMARK  101  A    between atoms: _236  and  _239
REMARK  102  A    between atoms: _239  and  _240
REMARK  103  A    between atoms: _243  and  _245
REMARK  104  A    between atoms: _245  and  _246
REMARK  105  A    between atoms: _245  and  _248
REMARK  106  A    between atoms: _248  and  _249
REMARK  107  A    between atoms: _252  and  _254
REMARK  108  A    between atoms: _254  and  _255
REMARK  109  A    between atoms: _257  and  _259
REMARK  110  A    between atoms: _259  and  _260
REMARK  111  A    between atoms: _259  and  _262
REMARK  112  A    between atoms: _262  and  _263
REMARK  113  A    between atoms: _263  and  _264
REMARK  114  A    between atoms: _264  and  _265
REMARK  115  A    between atoms: _274  and  _276
REMARK  116  A    between atoms: _276  and  _277
REMARK  117  A    between atoms: _276  and  _279
REMARK  118  A    between atoms: _279  and  _280
REMARK  119  A    between atoms: _285  and  _287
REMARK  120  A    between atoms: _287  and  _288
REMARK  121  A    between atoms: _287  and  _290
REMARK  122  A    between atoms: _290  and  _291
REMARK  123  A    between atoms: _291  and  _292
REMARK  124  A    between atoms: _292  and  _293
REMARK  125  A    between atoms: _302  and  _304
REMARK  126  A    between atoms: _304  and  _305
REMARK  127  A    between atoms: _304  and  _307
REMARK  128  A    between atoms: _307  and  _308
REMARK  129  A    between atoms: _311  and  _313
REMARK  130  A    between atoms: _313  and  _314
REMARK  131  A    between atoms: _313  and  _316
REMARK  132  A    between atoms: _316  and  _317
REMARK  133  A    between atoms: _320  and  _322
REMARK  134  A    between atoms: _322  and  _323
REMARK  135  A    between atoms: _322  and  _325
REMARK  136  A    between atoms: _325  and  _326
REMARK  137  A    between atoms: _329  and  _331
REMARK  138  A    between atoms: _331  and  _332
REMARK  139  A    between atoms: _331  and  _334
REMARK  140  A    between atoms: _334  and  _335
REMARK  141  A    between atoms: _338  and  _340
REMARK  142  A    between atoms: _340  and  _341
REMARK  143  A    between atoms: _343  and  _345
REMARK  144  A    between atoms: _345  and  _346
REMARK  145  A    between atoms: _349  and  _351
REMARK  146  A    between atoms: _351  and  _352
REMARK  147  A    between atoms: _351  and  _354
REMARK  148  A    between atoms: _354  and  _355
REMARK  149  A    between atoms: _358  and  _360
REMARK  150  A    between atoms: _360  and  _361
REMARK  151  A    between atoms: _360  and  _363
REMARK  152  A    between atoms: _363  and  _364
REMARK  153  A    between atoms: _364  and  _366
REMARK  154  A    between atoms: _367  and  _369
REMARK  155  A    between atoms: _369  and  _370
REMARK  156  A    between atoms: _369  and  _372
REMARK  157  A    between atoms: _372  and  _373
REMARK  158  A    between atoms: _376  and  _378
REMARK  159  A    between atoms: _378  and  _379
REMARK  160  A    between atoms: _378  and  _381
REMARK  161  A    between atoms: _381  and  _382
REMARK  162  A    between atoms: _385  and  _387
REMARK  163  A    between atoms: _387  and  _388
REMARK  164  A    between atoms: _387  and  _390
REMARK  165  A    between atoms: _390  and  _391
REMARK  166  A    between atoms: _391  and  _392
REMARK  167  A    between atoms: _392  and  _393
REMARK  168  A    between atoms: _393  and  _394
REMARK  169  A    between atoms: _398  and  _400
REMARK  170  A    between atoms: _400  and  _401
REMARK  171  A    between atoms: _400  and  _403
REMARK  172  A    between atoms: _403  and  _404
REMARK  173  A    between atoms: _404  and  _405
REMARK  174  A    between atoms: _407  and  _409
REMARK  175  A    between atoms: _409  and  _410
REMARK  176  A    between atoms: _409  and  _412
REMARK  177  A    between atoms: _415  and  _417
REMARK  178  A    between atoms: _417  and  _418
REMARK  179  A    between atoms: _420  and  _422
REMARK  180  A    between atoms: _422  and  _423
REMARK  181  A    between atoms: _425  and  _427
REMARK  182  A    between atoms: _427  and  _428
REMARK  183  A    between atoms: _427  and  _430
REMARK  184  A    between atoms: _430  and  _431
REMARK  185  A    between atoms: _434  and  _436
REMARK  186  A    between atoms: _436  and  _437
REMARK  187  A    between atoms: _439  and  _441
REMARK  188  A    between atoms: _441  and  _442
REMARK  189  A    between atoms: _444  and  _446
REMARK  190  A    between atoms: _446  and  _447
REMARK  191  A    between atoms: _446  and  _449
REMARK  192  A    between atoms: _449  and  _450
REMARK  193  A    between atoms: _456  and  _458
REMARK  194  A    between atoms: _458  and  _459
REMARK  195  A    between atoms: _458  and  _461
REMARK  196  A    between atoms: _461  and  _462
REMARK  197  A    between atoms: _465  and  _467
REMARK  198  A    between atoms: _467  and  _468
REMARK  199  A    between atoms: _467  and  _470
REMARK  200  A    between atoms: _470  and  _471
REMARK  201  A    between atoms: _474  and  _476
REMARK  202  A    between atoms: _476  and  _477
REMARK  203  A    between atoms: _476  and  _479
REMARK  204  A    between atoms: _479  and  _480
REMARK  205  A    between atoms: _484  and  _485
REMARK  206  A    between atoms: _490  and  _492
REMARK  207  A    between atoms: _492  and  _493
REMARK  208  A    between atoms: _492  and  _495
REMARK  209  A    between atoms: _495  and  _496
REMARK  210  A    between atoms: _499  and  _501
REMARK  211  A    between atoms: _501  and  _502
REMARK  212  A    between atoms: _501  and  _504
REMARK  213  A    between atoms: _504  and  _505
REMARK  214  A    between atoms: _510  and  _512
REMARK  215  A    between atoms: _512  and  _513
REMARK  216  A    between atoms: _512  and  _515
REMARK  217  A    between atoms: _515  and  _516
REMARK  218  A    between atoms: _519  and  _521
REMARK  219  A    between atoms: _521  and  _522
REMARK  220  A    between atoms: _524  and  _526
REMARK  221  A    between atoms: _526  and  _527
REMARK  222  A    between atoms: _526  and  _529
REMARK  223  A    between atoms: _529  and  _530
REMARK  224  A    between atoms: _530  and  _531
REMARK  225  A    between atoms: _531  and  _532
REMARK  226  A    between atoms: _541  and  _543
REMARK  227  A    between atoms: _543  and  _544
REMARK  228  A    between atoms: _543  and  _546
REMARK  229  A    between atoms: _546  and  _547
REMARK                            x       y       z     vdW  Elec       q    Type
REMARK                         _______ _______ _______ _____ _____    ______ ____
ROOT
ATOM      1  O   HOH     1      15.766  15.564  11.785  0.00  0.00    +0.000 OA
ENDROOT
TORSDOF 0
REMARK  Name = ../refined-set-2016/3s54/3s54_pocket.pdb
REMARK  229 active torsions:
REMARK  status: ('A' for Active; 'I' for Inactive)
REMARK    1  A    between atoms: _1  and  _3
REMARK    2  A    between atoms: _3  and  _4
REMARK    3  A    between atoms: _3  and  _6
REMARK    4  A    between atoms: _6  and  _7
REMARK    5  A    between atoms: _7  and  _8
REMARK    6  A    between atoms: _8  and  _9
REMARK    7  A    between atoms: _18  and  _20
REMARK    8  A    between atoms: _20  and  _21
REMARK    9  A    between atoms: _20  and  _23
REMARK   10  A    between atoms: _23  and  _24
REMARK   11  A    between atoms: _27  and  _29
REMARK   12  A    between atoms: _29  and  _30
REMARK   13  A    between atoms: _29  and  _32
REMARK   14  A    between atoms: _32  and  _33
REMARK   15  A    between atoms: _36  and  _38
REMARK   16  A    between atoms: _38  and  _39
REMARK   17  A    between atoms: _38  and  _41
REMARK   18  A    between atoms: _41  and  _42
REMARK   19  A    between atoms: _45  and  _47
REMARK   20  A    between atoms: _47  and  _48
REMARK   21  A    between atoms: _47  and  _50
REMARK   22  A    between atoms: _50  and  _51
REMARK   23  A    between atoms: _54  and  _56
REMARK   24  A    between atoms: _56  and  _57
REMARK   25  A    between atoms: _59  and  _61
REMARK   26  A    between atoms: _61  and  _62
REMARK   27  A    between atoms: _65  and  _67
REMARK   28  A    between atoms: _67  and  _68
REMARK   29  A    between atoms: _67  and  _70
REMARK   30  A    between atoms: _70  and  _71
REMARK   31  A    between atoms: _74  and  _76
REMARK   32  A    between atoms: _76  and  _77
REMARK   33  A    between atoms: _76  and  _79
REMARK   34  A    between atoms: _79  and  _80
REMARK   35  A    between atoms: _80  and  _82
REMARK   36  A    between atoms: _83  and  _85
REMARK   37  A    between atoms: _85  and  _86
REMARK   38  A    between atoms: _85  and  _88
REMARK   39  A    between atoms: _88  and  _89
REMARK   40  A    between atoms: _92  and  _94
REMARK   41  A    between atoms: _94  and  _95
REMARK   42  A    between atoms: _94  and  _97
REMARK   43  A    between atoms: _97  and  _98
REMARK   44  A    between atoms: _101  and  _103
REMARK   45  A    between atoms: _103  and  _104
REMARK   46  A    between atoms: _103  and  _106
REMARK   47  A    between atoms: _106  and  _107
REMARK   48  A    between atoms: _107  and  _108
REMARK   49  A    between atoms: _108  and  _109
REMARK   50  A    between atoms: _109  and  _110
REMARK   51  A    between atoms: _114  and  _116
REMARK   52  A    between atoms: _116  and  _117
REMARK   53  A    between atoms: _116  and  _119
REMARK   54  A    between atoms: _119  and  _120
REMARK   55  A    between atoms: _120  and  _121
REMARK   56  A    between atoms: _123  and  _125
REMARK   57  A    between atoms: _125  and  _126
REMARK   58  A    between atoms: _125  and  _128
REMARK   59  A    between atoms: _131  and  _133
REMARK   60  A    between atoms: _133  and  _134
REMARK   61  A    between atoms: _136  and  _138
REMARK   62  A    between atoms: _138  and  _139
REMARK   63  A    between atoms: _141  and  _143
REMARK   64  A    between atoms: _143  and  _144
REMARK   65  A    between atoms: _143  and  _146
REMARK   66  A    between atoms: _146  and  _147
REMARK   67  A    between atoms: _150  and  _152
REMARK   68  A    between atoms: _152  and  _153
REMARK   69  A    between atoms: _155  and  _157
REMARK   70  A    between atoms: _157  and  _158
REMARK   71  A    between atoms: _160  and  _162
REMARK   72  A    between atoms: _162  and  _163
REMARK   73  A    between atoms: _162  and  _165
REMARK   74  A    between atoms: _165  and  _166
REMARK   75  A    between atoms: _172  and  _174
REMARK   76  A    between atoms: _174  and  _175
REMARK   77  A    between atoms: _174  and  _177
REMARK   78  A    between atoms: _177  and  _178
REMARK   79  A    between atoms: _181  and  _183
REMARK   80  A    between atoms: _183  and  _184
REMARK   81  A    between atoms: _183  and  _186
REMARK   82  A    between atoms: _189  and  _191
REMARK   83  A    between atoms: _191  and  _192
REMARK   84  A    between atoms: _191  and  _194
REMARK   85  A    between atoms: _194  and  _195
REMARK   86  A    between atoms: _198  and  _200
REMARK   87  A    between atoms: _200  and  _201
REMARK   88  A    between atoms: _200  and  _203
REMARK   89  A    between atoms: _203  and  _204
REMARK   90  A    between atoms: _208  and  _209
REMARK   91  A    between atoms: _214  and  _216
REMARK   92  A    between atoms: _216  and  _217
REMARK   93  A    between atoms: _216  and  _219
REMARK   94  A    between atoms: _219  and  _220
REMARK   95  A    between atoms: _223  and  _225
REMARK   96  A    between atoms: _225  and  _226
REMARK   97  A    between atoms: _225  and  _228
REMARK   98  A    between atoms: _228  and  _229
REMARK   99  A    between atoms: _234  and  _236
REMARK  100  A    between atoms: _236  and  _237
REMARK  101  A    between atoms: _236  and  _239
REMARK  102  A    between atoms: _239  and  _240
REMARK  103  A    between atoms: _243  and  _245
REMARK  104  A    between atoms: _245  and  _246
REMARK  105  A    between atoms: _245  and  _248
REMARK  106  A    between atoms: _248  and  _249
REMARK  107  A    between atoms: _252  and  _254
REMARK  108  A    between atoms: _254  and  _255
REMARK  109  A    between atoms: _257  and  _259
REMARK  110  A    between atoms: _259  and  _260
REMARK  111  A    between atoms: _259  and  _262
REMARK  112  A    between atoms: _262  and  _263
REMARK  113  A    between atoms: _263  and  _264
REMARK  114  A    between atoms: _264  and  _265
REMARK  115  A    between atoms: _274  and  _276
REMARK  116  A    between atoms: _276  and  _277
REMARK  117  A    between atoms: _276  and  _279
REMARK  118  A    between atoms: _279  and  _280
REMARK  119  A    between atoms: _285  and  _287
REMARK  120  A    between atoms: _287  and  _288
REMARK  121  A    between atoms: _287  and  _290
REMARK  122  A    between atoms: _290  and  _291
REMARK  123  A    between atoms: _291  and  _292
REMARK  124  A    between atoms: _292  and  _293
REMARK  125  A    between atoms: _302  and  _304
REMARK  126  A    between atoms: _304  and  _305
REMARK  127  A    between atoms: _304  and  _307
REMARK  128  A    between atoms: _307  and  _308
REMARK  129  A    between atoms: _311  and  _313
REMARK  130  A    between atoms: _313  and  _314
REMARK  131  A    between atoms: _313  and  _316
REMARK  132  A    between atoms: _316  and  _317
REMARK  133  A    between atoms: _320  and  _322
REMARK  134  A    between atoms: _322  and  _323
REMARK  135  A    between atoms: _322  and  _325
REMARK  136  A    between atoms: _325  and  _326
REMARK  137  A    between atoms: _329  and  _331
REMARK  138  A    between atoms: _331  and  _332
REMARK  139  A    between atoms: _331  and  _334
REMARK  140  A    between atoms: _334  and  _335
REMARK  141  A    between atoms: _338  and  _340
REMARK  142  A    between atoms: _340  and  _341
REMARK  143  A    between atoms: _343  and  _345
REMARK  144  A    between atoms: _345  and  _346
REMARK  145  A    between atoms: _349  and  _351
REMARK  146  A    between atoms: _351  and  _352
REMARK  147  A    between atoms: _351  and  _354
REMARK  148  A    between atoms: _354  and  _355
REMARK  149  A    between atoms: _358  and  _360
REMARK  150  A    between atoms: _360  and  _361
REMARK  151  A    between atoms: _360  and  _363
REMARK  152  A    between atoms: _363  and  _364
REMARK  153  A    between atoms: _364  and  _366
REMARK  154  A    between atoms: _367  and  _369
REMARK  155  A    between atoms: _369  and  _370
REMARK  156  A    between atoms: _369  and  _372
REMARK  157  A    between atoms: _372  and  _373
REMARK  158  A    between atoms: _376  and  _378
REMARK  159  A    between atoms: _378  and  _379
REMARK  160  A    between atoms: _378  and  _381
REMARK  161  A    between atoms: _381  and  _382
REMARK  162  A    between atoms: _385  and  _387
REMARK  163  A    between atoms: _387  and  _388
REMARK  164  A    between atoms: _387  and  _390
REMARK  165  A    between atoms: _390  and  _391
REMARK  166  A    between atoms: _391  and  _392
REMARK  167  A    between atoms: _392  and  _393
REMARK  168  A    between atoms: _393  and  _394
REMARK  169  A    between atoms: _398  and  _400
REMARK  170  A    between atoms: _400  and  _401
REMARK  171  A    between atoms: _400  and  _403
REMARK  172  A    between atoms: _403  and  _404
REMARK  173  A    between atoms: _404  and  _405
REMARK  174  A    between atoms: _407  and  _409
REMARK  175  A    between atoms: _409  and  _410
REMARK  176  A    between atoms: _409  and  _412
REMARK  177  A    between atoms: _415  and  _417
REMARK  178  A    between atoms: _417  and  _418
REMARK  179  A    between atoms: _420  and  _422
REMARK  180  A    between atoms: _422  and  _423
REMARK  181  A    between atoms: _425  and  _427
REMARK  182  A    between atoms: _427  and  _428
REMARK  183  A    between atoms: _427  and  _430
REMARK  184  A    between atoms: _430  and  _431
REMARK  185  A    between atoms: _434  and  _436
REMARK  186  A    between atoms: _436  and  _437
REMARK  187  A    between atoms: _439  and  _441
REMARK  188  A    between atoms: _441  and  _442
REMARK  189  A    between atoms: _444  and  _446
REMARK  190  A    between atoms: _446  and  _447
REMARK  191  A    between atoms: _446  and  _449
REMARK  192  A    between atoms: _449  and  _450
REMARK  193  A    between atoms: _456  and  _458
REMARK  194  A    between atoms: _458  and  _459
REMARK  195  A    between atoms: _458  and  _461
REMARK  196  A    between atoms: _461  and  _462
REMARK  197  A    between atoms: _465  and  _467
REMARK  198  A    between atoms: _467  and  _468
REMARK  199  A    between atoms: _467  and  _470
REMARK  200  A    between atoms: _470  and  _471
REMARK  201  A    between atoms: _474  and  _476
REMARK  202  A    between atoms: _476  and  _477
REMARK  203  A    between atoms: _476  and  _479
REMARK  204  A    between atoms: _479  and  _480
REMARK  205  A    between atoms: _484  and  _485
REMARK  206  A    between atoms: _490  and  _492
REMARK  207  A    between atoms: _492  and  _493
REMARK  208  A    between atoms: _492  and  _495
REMARK  209  A    between atoms: _495  and  _496
REMARK  210  A    between atoms: _499  and  _501
REMARK  211  A    between atoms: _501  and  _502
REMARK  212  A    between atoms: _501  and  _504
REMARK  213  A    between atoms: _504  and  _505
REMARK  214  A    between atoms: _510  and  _512
REMARK  215  A    between atoms: _512  and  _513
REMARK  216  A    between atoms: _512  and  _515
REMARK  217  A    between atoms: _515  and  _516
REMARK  218  A    between atoms: _519  and  _521
REMARK  219  A    between atoms: _521  and  _522
REMARK  220  A    between atoms: _524  and  _526
REMARK  221  A    between atoms: _526  and  _527
REMARK  222  A    between atoms: _526  and  _529
REMARK  223  A    between atoms: _529  and  _530
REMARK  224  A    between atoms: _530  and  _531
REMARK  225  A    between atoms: _531  and  _532
REMARK  226  A    between atoms: _541  and  _543
REMARK  227  A    between atoms: _543  and  _544
REMARK  228  A    between atoms: _543  and  _546
REMARK  229  A    between atoms: _546  and  _547
REMARK                            x       y       z     vdW  Elec       q    Type
REMARK                         _______ _______ _______ _____ _____    ______ ____
ROOT
ATOM      1  O   HOH     1      18.120  20.610  16.473  0.00  0.00    +0.000 OA
ENDROOT
TORSDOF 0
REMARK  Name = ../refined-set-2016/3s54/3s54_pocket.pdb
REMARK  229 active torsions:
REMARK  status: ('A' for Active; 'I' for Inactive)
REMARK    1  A    between atoms: _1  and  _3
REMARK    2  A    between atoms: _3  and  _4
REMARK    3  A    between atoms: _3  and  _6
REMARK    4  A    between atoms: _6  and  _7
REMARK    5  A    between atoms: _7  and  _8
REMARK    6  A    between atoms: _8  and  _9
REMARK    7  A    between atoms: _18  and  _20
REMARK    8  A    between atoms: _20  and  _21
REMARK    9  A    between atoms: _20  and  _23
REMARK   10  A    between atoms: _23  and  _24
REMARK   11  A    between atoms: _27  and  _29
REMARK   12  A    between atoms: _29  and  _30
REMARK   13  A    between atoms: _29  and  _32
REMARK   14  A    between atoms: _32  and  _33
REMARK   15  A    between atoms: _36  and  _38
REMARK   16  A    between atoms: _38  and  _39
REMARK   17  A    between atoms: _38  and  _41
REMARK   18  A    between atoms: _41  and  _42
REMARK   19  A    between atoms: _45  and  _47
REMARK   20  A    between atoms: _47  and  _48
REMARK   21  A    between atoms: _47  and  _50
REMARK   22  A    between atoms: _50  and  _51
REMARK   23  A    between atoms: _54  and  _56
REMARK   24  A    between atoms: _56  and  _57
REMARK   25  A    between atoms: _59  and  _61
REMARK   26  A    between atoms: _61  and  _62
REMARK   27  A    between atoms: _65  and  _67
REMARK   28  A    between atoms: _67  and  _68
REMARK   29  A    between atoms: _67  and  _70
REMARK   30  A    between atoms: _70  and  _71
REMARK   31  A    between atoms: _74  and  _76
REMARK   32  A    between atoms: _76  and  _77
REMARK   33  A    between atoms: _76  and  _79
REMARK   34  A    between atoms: _79  and  _80
REMARK   35  A    between atoms: _80  and  _82
REMARK   36  A    between atoms: _83  and  _85
REMARK   37  A    between atoms: _85  and  _86
REMARK   38  A    between atoms: _85  and  _88
REMARK   39  A    between atoms: _88  and  _89
REMARK   40  A    between atoms: _92  and  _94
REMARK   41  A    between atoms: _94  and  _95
REMARK   42  A    between atoms: _94  and  _97
REMARK   43  A    between atoms: _97  and  _98
REMARK   44  A    between atoms: _101  and  _103
REMARK   45  A    between atoms: _103  and  _104
REMARK   46  A    between atoms: _103  and  _106
REMARK   47  A    between atoms: _106  and  _107
REMARK   48  A    between atoms: _107  and  _108
REMARK   49  A    between atoms: _108  and  _109
REMARK   50  A    between atoms: _109  and  _110
REMARK   51  A    between atoms: _114  and  _116
REMARK   52  A    between atoms: _116  and  _117
REMARK   53  A    between atoms: _116  and  _119
REMARK   54  A    between atoms: _119  and  _120
REMARK   55  A    between atoms: _120  and  _121
REMARK   56  A    between atoms: _123  and  _125
REMARK   57  A    between atoms: _125  and  _126
REMARK   58  A    between atoms: _125  and  _128
REMARK   59  A    between atoms: _131  and  _133
REMARK   60  A    between atoms: _133  and  _134
REMARK   61  A    between atoms: _136  and  _138
REMARK   62  A    between atoms: _138  and  _139
REMARK   63  A    between atoms: _141  and  _143
REMARK   64  A    between atoms: _143  and  _144
REMARK   65  A    between atoms: _143  and  _146
REMARK   66  A    between atoms: _146  and  _147
REMARK   67  A    between atoms: _150  and  _152
REMARK   68  A    between atoms: _152  and  _153
REMARK   69  A    between atoms: _155  and  _157
REMARK   70  A    between atoms: _157  and  _158
REMARK   71  A    between atoms: _160  and  _162
REMARK   72  A    between atoms: _162  and  _163
REMARK   73  A    between atoms: _162  and  _165
REMARK   74  A    between atoms: _165  and  _166
REMARK   75  A    between atoms: _172  and  _174
REMARK   76  A    between atoms: _174  and  _175
REMARK   77  A    between atoms: _174  and  _177
REMARK   78  A    between atoms: _177  and  _178
REMARK   79  A    between atoms: _181  and  _183
REMARK   80  A    between atoms: _183  and  _184
REMARK   81  A    between atoms: _183  and  _186
REMARK   82  A    between atoms: _189  and  _191
REMARK   83  A    between atoms: _191  and  _192
REMARK   84  A    between atoms: _191  and  _194
REMARK   85  A    between atoms: _194  and  _195
REMARK   86  A    between atoms: _198  and  _200
REMARK   87  A    between atoms: _200  and  _201
REMARK   88  A    between atoms: _200  and  _203
REMARK   89  A    between atoms: _203  and  _204
REMARK   90  A    between atoms: _208  and  _209
REMARK   91  A    between atoms: _214  and  _216
REMARK   92  A    between atoms: _216  and  _217
REMARK   93  A    between atoms: _216  and  _219
REMARK   94  A    between atoms: _219  and  _220
REMARK   95  A    between atoms: _223  and  _225
REMARK   96  A    between atoms: _225  and  _226
REMARK   97  A    between atoms: _225  and  _228
REMARK   98  A    between atoms: _228  and  _229
REMARK   99  A    between atoms: _234  and  _236
REMARK  100  A    between atoms: _236  and  _237
REMARK  101  A    between atoms: _236  and  _239
REMARK  102  A    between atoms: _239  and  _240
REMARK  103  A    between atoms: _243  and  _245
REMARK  104  A    between atoms: _245  and  _246
REMARK  105  A    between atoms: _245  and  _248
REMARK  106  A    between atoms: _248  and  _249
REMARK  107  A    between atoms: _252  and  _254
REMARK  108  A    between atoms: _254  and  _255
REMARK  109  A    between atoms: _257  and  _259
REMARK  110  A    between atoms: _259  and  _260
REMARK  111  A    between atoms: _259  and  _262
REMARK  112  A    between atoms: _262  and  _263
REMARK  113  A    between atoms: _263  and  _264
REMARK  114  A    between atoms: _264  and  _265
REMARK  115  A    between atoms: _274  and  _276
REMARK  116  A    between atoms: _276  and  _277
REMARK  117  A    between atoms: _276  and  _279
REMARK  118  A    between atoms: _279  and  _280
REMARK  119  A    between atoms: _285  and  _287
REMARK  120  A    between atoms: _287  and  _288
REMARK  121  A    between atoms: _287  and  _290
REMARK  122  A    between atoms: _290  and  _291
REMARK  123  A    between atoms: _291  and  _292
REMARK  124  A    between atoms: _292  and  _293
REMARK  125  A    between atoms: _302  and  _304
REMARK  126  A    between atoms: _304  and  _305
REMARK  127  A    between atoms: _304  and  _307
REMARK  128  A    between atoms: _307  and  _308
REMARK  129  A    between atoms: _311  and  _313
REMARK  130  A    between atoms: _313  and  _314
REMARK  131  A    between atoms: _313  and  _316
REMARK  132  A    between atoms: _316  and  _317
REMARK  133  A    between atoms: _320  and  _322
REMARK  134  A    between atoms: _322  and  _323
REMARK  135  A    between atoms: _322  and  _325
REMARK  136  A    between atoms: _325  and  _326
REMARK  137  A    between atoms: _329  and  _331
REMARK  138  A    between atoms: _331  and  _332
REMARK  139  A    between atoms: _331  and  _334
REMARK  140  A    between atoms: _334  and  _335
REMARK  141  A    between atoms: _338  and  _340
REMARK  142  A    between atoms: _340  and  _341
REMARK  143  A    between atoms: _343  and  _345
REMARK  144  A    between atoms: _345  and  _346
REMARK  145  A    between atoms: _349  and  _351
REMARK  146  A    between atoms: _351  and  _352
REMARK  147  A    between atoms: _351  and  _354
REMARK  148  A    between atoms: _354  and  _355
REMARK  149  A    between atoms: _358  and  _360
REMARK  150  A    between atoms: _360  and  _361
REMARK  151  A    between atoms: _360  and  _363
REMARK  152  A    between atoms: _363  and  _364
REMARK  153  A    between atoms: _364  and  _366
REMARK  154  A    between atoms: _367  and  _369
REMARK  155  A    between atoms: _369  and  _370
REMARK  156  A    between atoms: _369  and  _372
REMARK  157  A    between atoms: _372  and  _373
REMARK  158  A    between atoms: _376  and  _378
REMARK  159  A    between atoms: _378  and  _379
REMARK  160  A    between atoms: _378  and  _381
REMARK  161  A    between atoms: _381  and  _382
REMARK  162  A    between atoms: _385  and  _387
REMARK  163  A    between atoms: _387  and  _388
REMARK  164  A    between atoms: _387  and  _390
REMARK  165  A    between atoms: _390  and  _391
REMARK  166  A    between atoms: _391  and  _392
REMARK  167  A    between atoms: _392  and  _393
REMARK  168  A    between atoms: _393  and  _394
REMARK  169  A    between atoms: _398  and  _400
REMARK  170  A    between atoms: _400  and  _401
REMARK  171  A    between atoms: _400  and  _403
REMARK  172  A    between atoms: _403  and  _404
REMARK  173  A    between atoms: _404  and  _405
REMARK  174  A    between atoms: _407  and  _409
REMARK  175  A    between atoms: _409  and  _410
REMARK  176  A    between atoms: _409  and  _412
REMARK  177  A    between atoms: _415  and  _417
REMARK  178  A    between atoms: _417  and  _418
REMARK  179  A    between atoms: _420  and  _422
REMARK  180  A    between atoms: _422  and  _423
REMARK  181  A    between atoms: _425  and  _427
REMARK  182  A    between atoms: _427  and  _428
REMARK  183  A    between atoms: _427  and  _430
REMARK  184  A    between atoms: _430  and  _431
REMARK  185  A    between atoms: _434  and  _436
REMARK  186  A    between atoms: _436  and  _437
REMARK  187  A    between atoms: _439  and  _441
REMARK  188  A    between atoms: _441  and  _442
REMARK  189  A    between atoms: _444  and  _446
REMARK  190  A    between atoms: _446  and  _447
REMARK  191  A    between atoms: _446  and  _449
REMARK  192  A    between atoms: _449  and  _450
REMARK  193  A    between atoms: _456  and  _458
REMARK  194  A    between atoms: _458  and  _459
REMARK  195  A    between atoms: _458  and  _461
REMARK  196  A    between atoms: _461  and  _462
REMARK  197  A    between atoms: _465  and  _467
REMARK  198  A    between atoms: _467  and  _468
REMARK  199  A    between atoms: _467  and  _470
REMARK  200  A    between atoms: _470  and  _471
REMARK  201  A    between atoms: _474  and  _476
REMARK  202  A    between atoms: _476  and  _477
REMARK  203  A    between atoms: _476  and  _479
REMARK  204  A    between atoms: _479  and  _480
REMARK  205  A    between atoms: _484  and  _485
REMARK  206  A    between atoms: _490  and  _492
REMARK  207  A    between atoms: _492  and  _493
REMARK  208  A    between atoms: _492  and  _495
REMARK  209  A    between atoms: _495  and  _496
REMARK  210  A    between atoms: _499  and  _501
REMARK  211  A    between atoms: _501  and  _502
REMARK  212  A    between atoms: _501  and  _504
REMARK  213  A    between atoms: _504  and  _505
REMARK  214  A    between atoms: _510  and  _512
REMARK  215  A    between atoms: _512  and  _513
REMARK  216  A    between atoms: _512  and  _515
REMARK  217  A    between atoms: _515  and  _516
REMARK  218  A    between atoms: _519  and  _521
REMARK  219  A    between atoms: _521  and  _522
REMARK  220  A    between atoms: _524  and  _526
REMARK  221  A    between atoms: _526  and  _527
REMARK  222  A    between atoms: _526  and  _529
REMARK  223  A    between atoms: _529  and  _530
REMARK  224  A    between atoms: _530  and  _531
REMARK  225  A    between atoms: _531  and  _532
REMARK  226  A    between atoms: _541  and  _543
REMARK  227  A    between atoms: _543  and  _544
REMARK  228  A    between atoms: _543  and  _546
REMARK  229  A    between atoms: _546  and  _547
REMARK                            x       y       z     vdW  Elec       q    Type
REMARK                         _______ _______ _______ _____ _____    ______ ____
ROOT
ATOM      1  O   HOH     1      11.803  15.956  13.791  0.00  0.00    +0.000 OA
ENDROOT
TORSDOF 0
REMARK  Name = ../refined-set-2016/3s54/3s54_pocket.pdb
REMARK  229 active torsions:
REMARK  status: ('A' for Active; 'I' for Inactive)
REMARK    1  A    between atoms: _1  and  _3
REMARK    2  A    between atoms: _3  and  _4
REMARK    3  A    between atoms: _3  and  _6
REMARK    4  A    between atoms: _6  and  _7
REMARK    5  A    between atoms: _7  and  _8
REMARK    6  A    between atoms: _8  and  _9
REMARK    7  A    between atoms: _18  and  _20
REMARK    8  A    between atoms: _20  and  _21
REMARK    9  A    between atoms: _20  and  _23
REMARK   10  A    between atoms: _23  and  _24
REMARK   11  A    between atoms: _27  and  _29
REMARK   12  A    between atoms: _29  and  _30
REMARK   13  A    between atoms: _29  and  _32
REMARK   14  A    between atoms: _32  and  _33
REMARK   15  A    between atoms: _36  and  _38
REMARK   16  A    between atoms: _38  and  _39
REMARK   17  A    between atoms: _38  and  _41
REMARK   18  A    between atoms: _41  and  _42
REMARK   19  A    between atoms: _45  and  _47
REMARK   20  A    between atoms: _47  and  _48
REMARK   21  A    between atoms: _47  and  _50
REMARK   22  A    between atoms: _50  and  _51
REMARK   23  A    between atoms: _54  and  _56
REMARK   24  A    between atoms: _56  and  _57
REMARK   25  A    between atoms: _59  and  _61
REMARK   26  A    between atoms: _61  and  _62
REMARK   27  A    between atoms: _65  and  _67
REMARK   28  A    between atoms: _67  and  _68
REMARK   29  A    between atoms: _67  and  _70
REMARK   30  A    between atoms: _70  and  _71
REMARK   31  A    between atoms: _74  and  _76
REMARK   32  A    between atoms: _76  and  _77
REMARK   33  A    between atoms: _76  and  _79
REMARK   34  A    between atoms: _79  and  _80
REMARK   35  A    between atoms: _80  and  _82
REMARK   36  A    between atoms: _83  and  _85
REMARK   37  A    between atoms: _85  and  _86
REMARK   38  A    between atoms: _85  and  _88
REMARK   39  A    between atoms: _88  and  _89
REMARK   40  A    between atoms: _92  and  _94
REMARK   41  A    between atoms: _94  and  _95
REMARK   42  A    between atoms: _94  and  _97
REMARK   43  A    between atoms: _97  and  _98
REMARK   44  A    between atoms: _101  and  _103
REMARK   45  A    between atoms: _103  and  _104
REMARK   46  A    between atoms: _103  and  _106
REMARK   47  A    between atoms: _106  and  _107
REMARK   48  A    between atoms: _107  and  _108
REMARK   49  A    between atoms: _108  and  _109
REMARK   50  A    between atoms: _109  and  _110
REMARK   51  A    between atoms: _114  and  _116
REMARK   52  A    between atoms: _116  and  _117
REMARK   53  A    between atoms: _116  and  _119
REMARK   54  A    between atoms: _119  and  _120
REMARK   55  A    between atoms: _120  and  _121
REMARK   56  A    between atoms: _123  and  _125
REMARK   57  A    between atoms: _125  and  _126
REMARK   58  A    between atoms: _125  and  _128
REMARK   59  A    between atoms: _131  and  _133
REMARK   60  A    between atoms: _133  and  _134
REMARK   61  A    between atoms: _136  and  _138
REMARK   62  A    between atoms: _138  and  _139
REMARK   63  A    between atoms: _141  and  _143
REMARK   64  A    between atoms: _143  and  _144
REMARK   65  A    between atoms: _143  and  _146
REMARK   66  A    between atoms: _146  and  _147
REMARK   67  A    between atoms: _150  and  _152
REMARK   68  A    between atoms: _152  and  _153
REMARK   69  A    between atoms: _155  and  _157
REMARK   70  A    between atoms: _157  and  _158
REMARK   71  A    between atoms: _160  and  _162
REMARK   72  A    between atoms: _162  and  _163
REMARK   73  A    between atoms: _162  and  _165
REMARK   74  A    between atoms: _165  and  _166
REMARK   75  A    between atoms: _172  and  _174
REMARK   76  A    between atoms: _174  and  _175
REMARK   77  A    between atoms: _174  and  _177
REMARK   78  A    between atoms: _177  and  _178
REMARK   79  A    between atoms: _181  and  _183
REMARK   80  A    between atoms: _183  and  _184
REMARK   81  A    between atoms: _183  and  _186
REMARK   82  A    between atoms: _189  and  _191
REMARK   83  A    between atoms: _191  and  _192
REMARK   84  A    between atoms: _191  and  _194
REMARK   85  A    between atoms: _194  and  _195
REMARK   86  A    between atoms: _198  and  _200
REMARK   87  A    between atoms: _200  and  _201
REMARK   88  A    between atoms: _200  and  _203
REMARK   89  A    between atoms: _203  and  _204
REMARK   90  A    between atoms: _208  and  _209
REMARK   91  A    between atoms: _214  and  _216
REMARK   92  A    between atoms: _216  and  _217
REMARK   93  A    between atoms: _216  and  _219
REMARK   94  A    between atoms: _219  and  _220
REMARK   95  A    between atoms: _223  and  _225
REMARK   96  A    between atoms: _225  and  _226
REMARK   97  A    between atoms: _225  and  _228
REMARK   98  A    between atoms: _228  and  _229
REMARK   99  A    between atoms: _234  and  _236
REMARK  100  A    between atoms: _236  and  _237
REMARK  101  A    between atoms: _236  and  _239
REMARK  102  A    between atoms: _239  and  _240
REMARK  103  A    between atoms: _243  and  _245
REMARK  104  A    between atoms: _245  and  _246
REMARK  105  A    between atoms: _245  and  _248
REMARK  106  A    between atoms: _248  and  _249
REMARK  107  A    between atoms: _252  and  _254
REMARK  108  A    between atoms: _254  and  _255
REMARK  109  A    between atoms: _257  and  _259
REMARK  110  A    between atoms: _259  and  _260
REMARK  111  A    between atoms: _259  and  _262
REMARK  112  A    between atoms: _262  and  _263
REMARK  113  A    between atoms: _263  and  _264
REMARK  114  A    between atoms: _264  and  _265
REMARK  115  A    between atoms: _274  and  _276
REMARK  116  A    between atoms: _276  and  _277
REMARK  117  A    between atoms: _276  and  _279
REMARK  118  A    between atoms: _279  and  _280
REMARK  119  A    between atoms: _285  and  _287
REMARK  120  A    between atoms: _287  and  _288
REMARK  121  A    between atoms: _287  and  _290
REMARK  122  A    between atoms: _290  and  _291
REMARK  123  A    between atoms: _291  and  _292
REMARK  124  A    between atoms: _292  and  _293
REMARK  125  A    between atoms: _302  and  _304
REMARK  126  A    between atoms: _304  and  _305
REMARK  127  A    between atoms: _304  and  _307
REMARK  128  A    between atoms: _307  and  _308
REMARK  129  A    between atoms: _311  and  _313
REMARK  130  A    between atoms: _313  and  _314
REMARK  131  A    between atoms: _313  and  _316
REMARK  132  A    between atoms: _316  and  _317
REMARK  133  A    between atoms: _320  and  _322
REMARK  134  A    between atoms: _322  and  _323
REMARK  135  A    between atoms: _322  and  _325
REMARK  136  A    between atoms: _325  and  _326
REMARK  137  A    between atoms: _329  and  _331
REMARK  138  A    between atoms: _331  and  _332
REMARK  139  A    between atoms: _331  and  _334
REMARK  140  A    between atoms: _334  and  _335
REMARK  141  A    between atoms: _338  and  _340
REMARK  142  A    between atoms: _340  and  _341
REMARK  143  A    between atoms: _343  and  _345
REMARK  144  A    between atoms: _345  and  _346
REMARK  145  A    between atoms: _349  and  _351
REMARK  146  A    between atoms: _351  and  _352
REMARK  147  A    between atoms: _351  and  _354
REMARK  148  A    between atoms: _354  and  _355
REMARK  149  A    between atoms: _358  and  _360
REMARK  150  A    between atoms: _360  and  _361
REMARK  151  A    between atoms: _360  and  _363
REMARK  152  A    between atoms: _363  and  _364
REMARK  153  A    between atoms: _364  and  _366
REMARK  154  A    between atoms: _367  and  _369
REMARK  155  A    between atoms: _369  and  _370
REMARK  156  A    between atoms: _369  and  _372
REMARK  157  A    between atoms: _372  and  _373
REMARK  158  A    between atoms: _376  and  _378
REMARK  159  A    between atoms: _378  and  _379
REMARK  160  A    between atoms: _378  and  _381
REMARK  161  A    between atoms: _381  and  _382
REMARK  162  A    between atoms: _385  and  _387
REMARK  163  A    between atoms: _387  and  _388
REMARK  164  A    between atoms: _387  and  _390
REMARK  165  A    between atoms: _390  and  _391
REMARK  166  A    between atoms: _391  and  _392
REMARK  167  A    between atoms: _392  and  _393
REMARK  168  A    between atoms: _393  and  _394
REMARK  169  A    between atoms: _398  and  _400
REMARK  170  A    between atoms: _400  and  _401
REMARK  171  A    between atoms: _400  and  _403
REMARK  172  A    between atoms: _403  and  _404
REMARK  173  A    between atoms: _404  and  _405
REMARK  174  A    between atoms: _407  and  _409
REMARK  175  A    between atoms: _409  and  _410
REMARK  176  A    between atoms: _409  and  _412
REMARK  177  A    between atoms: _415  and  _417
REMARK  178  A    between atoms: _417  and  _418
REMARK  179  A    between atoms: _420  and  _422
REMARK  180  A    between atoms: _422  and  _423
REMARK  181  A    between atoms: _425  and  _427
REMARK  182  A    between atoms: _427  and  _428
REMARK  183  A    between atoms: _427  and  _430
REMARK  184  A    between atoms: _430  and  _431
REMARK  185  A    between atoms: _434  and  _436
REMARK  186  A    between atoms: _436  and  _437
REMARK  187  A    between atoms: _439  and  _441
REMARK  188  A    between atoms: _441  and  _442
REMARK  189  A    between atoms: _444  and  _446
REMARK  190  A    between atoms: _446  and  _447
REMARK  191  A    between atoms: _446  and  _449
REMARK  192  A    between atoms: _449  and  _450
REMARK  193  A    between atoms: _456  and  _458
REMARK  194  A    between atoms: _458  and  _459
REMARK  195  A    between atoms: _458  and  _461
REMARK  196  A    between atoms: _461  and  _462
REMARK  197  A    between atoms: _465  and  _467
REMARK  198  A    between atoms: _467  and  _468
REMARK  199  A    between atoms: _467  and  _470
REMARK  200  A    between atoms: _470  and  _471
REMARK  201  A    between atoms: _474  and  _476
REMARK  202  A    between atoms: _476  and  _477
REMARK  203  A    between atoms: _476  and  _479
REMARK  204  A    between atoms: _479  and  _480
REMARK  205  A    between atoms: _484  and  _485
REMARK  206  A    between atoms: _490  and  _492
REMARK  207  A    between atoms: _492  and  _493
REMARK  208  A    between atoms: _492  and  _495
REMARK  209  A    between atoms: _495  and  _496
REMARK  210  A    between atoms: _499  and  _501
REMARK  211  A    between atoms: _501  and  _502
REMARK  212  A    between atoms: _501  and  _504
REMARK  213  A    between atoms: _504  and  _505
REMARK  214  A    between atoms: _510  and  _512
REMARK  215  A    between atoms: _512  and  _513
REMARK  216  A    between atoms: _512  and  _515
REMARK  217  A    between atoms: _515  and  _516
REMARK  218  A    between atoms: _519  and  _521
REMARK  219  A    between atoms: _521  and  _522
REMARK  220  A    between atoms: _524  and  _526
REMARK  221  A    between atoms: _526  and  _527
REMARK  222  A    between atoms: _526  and  _529
REMARK  223  A    between atoms: _529  and  _530
REMARK  224  A    between atoms: _530  and  _531
REMARK  225  A    between atoms: _531  and  _532
REMARK  226  A    between atoms: _541  and  _543
REMARK  227  A    between atoms: _543  and  _544
REMARK  228  A    between atoms: _543  and  _546
REMARK  229  A    between atoms: _546  and  _547
REMARK                            x       y       z     vdW  Elec       q    Type
REMARK                         _______ _______ _______ _____ _____    ______ ____
ROOT
ATOM      1  O   HOH     1      25.205  25.834  20.114  0.00  0.00    +0.000 OA
ENDROOT
TORSDOF 0
REMARK  Name = ../refined-set-2016/3s54/3s54_pocket.pdb
REMARK  229 active torsions:
REMARK  status: ('A' for Active; 'I' for Inactive)
REMARK    1  A    between atoms: _1  and  _3
REMARK    2  A    between atoms: _3  and  _4
REMARK    3  A    between atoms: _3  and  _6
REMARK    4  A    between atoms: _6  and  _7
REMARK    5  A    between atoms: _7  and  _8
REMARK    6  A    between atoms: _8  and  _9
REMARK    7  A    between atoms: _18  and  _20
REMARK    8  A    between atoms: _20  and  _21
REMARK    9  A    between atoms: _20  and  _23
REMARK   10  A    between atoms: _23  and  _24
REMARK   11  A    between atoms: _27  and  _29
REMARK   12  A    between atoms: _29  and  _30
REMARK   13  A    between atoms: _29  and  _32
REMARK   14  A    between atoms: _32  and  _33
REMARK   15  A    between atoms: _36  and  _38
REMARK   16  A    between atoms: _38  and  _39
REMARK   17  A    between atoms: _38  and  _41
REMARK   18  A    between atoms: _41  and  _42
REMARK   19  A    between atoms: _45  and  _47
REMARK   20  A    between atoms: _47  and  _48
REMARK   21  A    between atoms: _47  and  _50
REMARK   22  A    between atoms: _50  and  _51
REMARK   23  A    between atoms: _54  and  _56
REMARK   24  A    between atoms: _56  and  _57
REMARK   25  A    between atoms: _59  and  _61
REMARK   26  A    between atoms: _61  and  _62
REMARK   27  A    between atoms: _65  and  _67
REMARK   28  A    between atoms: _67  and  _68
REMARK   29  A    between atoms: _67  and  _70
REMARK   30  A    between atoms: _70  and  _71
REMARK   31  A    between atoms: _74  and  _76
REMARK   32  A    between atoms: _76  and  _77
REMARK   33  A    between atoms: _76  and  _79
REMARK   34  A    between atoms: _79  and  _80
REMARK   35  A    between atoms: _80  and  _82
REMARK   36  A    between atoms: _83  and  _85
REMARK   37  A    between atoms: _85  and  _86
REMARK   38  A    between atoms: _85  and  _88
REMARK   39  A    between atoms: _88  and  _89
REMARK   40  A    between atoms: _92  and  _94
REMARK   41  A    between atoms: _94  and  _95
REMARK   42  A    between atoms: _94  and  _97
REMARK   43  A    between atoms: _97  and  _98
REMARK   44  A    between atoms: _101  and  _103
REMARK   45  A    between atoms: _103  and  _104
REMARK   46  A    between atoms: _103  and  _106
REMARK   47  A    between atoms: _106  and  _107
REMARK   48  A    between atoms: _107  and  _108
REMARK   49  A    between atoms: _108  and  _109
REMARK   50  A    between atoms: _109  and  _110
REMARK   51  A    between atoms: _114  and  _116
REMARK   52  A    between atoms: _116  and  _117
REMARK   53  A    between atoms: _116  and  _119
REMARK   54  A    between atoms: _119  and  _120
REMARK   55  A    between atoms: _120  and  _121
REMARK   56  A    between atoms: _123  and  _125
REMARK   57  A    between atoms: _125  and  _126
REMARK   58  A    between atoms: _125  and  _128
REMARK   59  A    between atoms: _131  and  _133
REMARK   60  A    between atoms: _133  and  _134
REMARK   61  A    between atoms: _136  and  _138
REMARK   62  A    between atoms: _138  and  _139
REMARK   63  A    between atoms: _141  and  _143
REMARK   64  A    between atoms: _143  and  _144
REMARK   65  A    between atoms: _143  and  _146
REMARK   66  A    between atoms: _146  and  _147
REMARK   67  A    between atoms: _150  and  _152
REMARK   68  A    between atoms: _152  and  _153
REMARK   69  A    between atoms: _155  and  _157
REMARK   70  A    between atoms: _157  and  _158
REMARK   71  A    between atoms: _160  and  _162
REMARK   72  A    between atoms: _162  and  _163
REMARK   73  A    between atoms: _162  and  _165
REMARK   74  A    between atoms: _165  and  _166
REMARK   75  A    between atoms: _172  and  _174
REMARK   76  A    between atoms: _174  and  _175
REMARK   77  A    between atoms: _174  and  _177
REMARK   78  A    between atoms: _177  and  _178
REMARK   79  A    between atoms: _181  and  _183
REMARK   80  A    between atoms: _183  and  _184
REMARK   81  A    between atoms: _183  and  _186
REMARK   82  A    between atoms: _189  and  _191
REMARK   83  A    between atoms: _191  and  _192
REMARK   84  A    between atoms: _191  and  _194
REMARK   85  A    between atoms: _194  and  _195
REMARK   86  A    between atoms: _198  and  _200
REMARK   87  A    between atoms: _200  and  _201
REMARK   88  A    between atoms: _200  and  _203
REMARK   89  A    between atoms: _203  and  _204
REMARK   90  A    between atoms: _208  and  _209
REMARK   91  A    between atoms: _214  and  _216
REMARK   92  A    between atoms: _216  and  _217
REMARK   93  A    between atoms: _216  and  _219
REMARK   94  A    between atoms: _219  and  _220
REMARK   95  A    between atoms: _223  and  _225
REMARK   96  A    between atoms: _225  and  _226
REMARK   97  A    between atoms: _225  and  _228
REMARK   98  A    between atoms: _228  and  _229
REMARK   99  A    between atoms: _234  and  _236
REMARK  100  A    between atoms: _236  and  _237
REMARK  101  A    between atoms: _236  and  _239
REMARK  102  A    between atoms: _239  and  _240
REMARK  103  A    between atoms: _243  and  _245
REMARK  104  A    between atoms: _245  and  _246
REMARK  105  A    between atoms: _245  and  _248
REMARK  106  A    between atoms: _248  and  _249
REMARK  107  A    between atoms: _252  and  _254
REMARK  108  A    between atoms: _254  and  _255
REMARK  109  A    between atoms: _257  and  _259
REMARK  110  A    between atoms: _259  and  _260
REMARK  111  A    between atoms: _259  and  _262
REMARK  112  A    between atoms: _262  and  _263
REMARK  113  A    between atoms: _263  and  _264
REMARK  114  A    between atoms: _264  and  _265
REMARK  115  A    between atoms: _274  and  _276
REMARK  116  A    between atoms: _276  and  _277
REMARK  117  A    between atoms: _276  and  _279
REMARK  118  A    between atoms: _279  and  _280
REMARK  119  A    between atoms: _285  and  _287
REMARK  120  A    between atoms: _287  and  _288
REMARK  121  A    between atoms: _287  and  _290
REMARK  122  A    between atoms: _290  and  _291
REMARK  123  A    between atoms: _291  and  _292
REMARK  124  A    between atoms: _292  and  _293
REMARK  125  A    between atoms: _302  and  _304
REMARK  126  A    between atoms: _304  and  _305
REMARK  127  A    between atoms: _304  and  _307
REMARK  128  A    between atoms: _307  and  _308
REMARK  129  A    between atoms: _311  and  _313
REMARK  130  A    between atoms: _313  and  _314
REMARK  131  A    between atoms: _313  and  _316
REMARK  132  A    between atoms: _316  and  _317
REMARK  133  A    between atoms: _320  and  _322
REMARK  134  A    between atoms: _322  and  _323
REMARK  135  A    between atoms: _322  and  _325
REMARK  136  A    between atoms: _325  and  _326
REMARK  137  A    between atoms: _329  and  _331
REMARK  138  A    between atoms: _331  and  _332
REMARK  139  A    between atoms: _331  and  _334
REMARK  140  A    between atoms: _334  and  _335
REMARK  141  A    between atoms: _338  and  _340
REMARK  142  A    between atoms: _340  and  _341
REMARK  143  A    between atoms: _343  and  _345
REMARK  144  A    between atoms: _345  and  _346
REMARK  145  A    between atoms: _349  and  _351
REMARK  146  A    between atoms: _351  and  _352
REMARK  147  A    between atoms: _351  and  _354
REMARK  148  A    between atoms: _354  and  _355
REMARK  149  A    between atoms: _358  and  _360
REMARK  150  A    between atoms: _360  and  _361
REMARK  151  A    between atoms: _360  and  _363
REMARK  152  A    between atoms: _363  and  _364
REMARK  153  A    between atoms: _364  and  _366
REMARK  154  A    between atoms: _367  and  _369
REMARK  155  A    between atoms: _369  and  _370
REMARK  156  A    between atoms: _369  and  _372
REMARK  157  A    between atoms: _372  and  _373
REMARK  158  A    between atoms: _376  and  _378
REMARK  159  A    between atoms: _378  and  _379
REMARK  160  A    between atoms: _378  and  _381
REMARK  161  A    between atoms: _381  and  _382
REMARK  162  A    between atoms: _385  and  _387
REMARK  163  A    between atoms: _387  and  _388
REMARK  164  A    between atoms: _387  and  _390
REMARK  165  A    between atoms: _390  and  _391
REMARK  166  A    between atoms: _391  and  _392
REMARK  167  A    between atoms: _392  and  _393
REMARK  168  A    between atoms: _393  and  _394
REMARK  169  A    between atoms: _398  and  _400
REMARK  170  A    between atoms: _400  and  _401
REMARK  171  A    between atoms: _400  and  _403
REMARK  172  A    between atoms: _403  and  _404
REMARK  173  A    between atoms: _404  and  _405
REMARK  174  A    between atoms: _407  and  _409
REMARK  175  A    between atoms: _409  and  _410
REMARK  176  A    between atoms: _409  and  _412
REMARK  177  A    between atoms: _415  and  _417
REMARK  178  A    between atoms: _417  and  _418
REMARK  179  A    between atoms: _420  and  _422
REMARK  180  A    between atoms: _422  and  _423
REMARK  181  A    between atoms: _425  and  _427
REMARK  182  A    between atoms: _427  and  _428
REMARK  183  A    between atoms: _427  and  _430
REMARK  184  A    between atoms: _430  and  _431
REMARK  185  A    between atoms: _434  and  _436
REMARK  186  A    between atoms: _436  and  _437
REMARK  187  A    between atoms: _439  and  _441
REMARK  188  A    between atoms: _441  and  _442
REMARK  189  A    between atoms: _444  and  _446
REMARK  190  A    between atoms: _446  and  _447
REMARK  191  A    between atoms: _446  and  _449
REMARK  192  A    between atoms: _449  and  _450
REMARK  193  A    between atoms: _456  and  _458
REMARK  194  A    between atoms: _458  and  _459
REMARK  195  A    between atoms: _458  and  _461
REMARK  196  A    between atoms: _461  and  _462
REMARK  197  A    between atoms: _465  and  _467
REMARK  198  A    between atoms: _467  and  _468
REMARK  199  A    between atoms: _467  and  _470
REMARK  200  A    between atoms: _470  and  _471
REMARK  201  A    between atoms: _474  and  _476
REMARK  202  A    between atoms: _476  and  _477
REMARK  203  A    between atoms: _476  and  _479
REMARK  204  A    between atoms: _479  and  _480
REMARK  205  A    between atoms: _484  and  _485
REMARK  206  A    between atoms: _490  and  _492
REMARK  207  A    between atoms: _492  and  _493
REMARK  208  A    between atoms: _492  and  _495
REMARK  209  A    between atoms: _495  and  _496
REMARK  210  A    between atoms: _499  and  _501
REMARK  211  A    between atoms: _501  and  _502
REMARK  212  A    between atoms: _501  and  _504
REMARK  213  A    between atoms: _504  and  _505
REMARK  214  A    between atoms: _510  and  _512
REMARK  215  A    between atoms: _512  and  _513
REMARK  216  A    between atoms: _512  and  _515
REMARK  217  A    between atoms: _515  and  _516
REMARK  218  A    between atoms: _519  and  _521
REMARK  219  A    between atoms: _521  and  _522
REMARK  220  A    between atoms: _524  and  _526
REMARK  221  A    between atoms: _526  and  _527
REMARK  222  A    between atoms: _526  and  _529
REMARK  223  A    between atoms: _529  and  _530
REMARK  224  A    between atoms: _530  and  _531
REMARK  225  A    between atoms: _531  and  _532
REMARK  226  A    between atoms: _541  and  _543
REMARK  227  A    between atoms: _543  and  _544
REMARK  228  A    between atoms: _543  and  _546
REMARK  229  A    between atoms: _546  and  _547
REMARK                            x       y       z     vdW  Elec       q    Type
REMARK                         _______ _______ _______ _____ _____    ______ ____
ROOT
ATOM      1  O   HOH     1       9.345  15.983  26.649  0.00  0.00    +0.000 OA
ENDROOT
TORSDOF 0
