REMARK  Name = ../refined-set-2016/4jne/4jne_pocket.pdb
REMARK  259 active torsions:
REMARK  status: ('A' for Active; 'I' for Inactive)
REMARK    1  A    between atoms: _1  and  _3
REMARK    2  A    between atoms: _3  and  _4
REMARK    3  A    between atoms: _3  and  _6
REMARK    4  A    between atoms: _6  and  _7
REMARK    5  A    between atoms: _10  and  _12
REMARK    6  A    between atoms: _12  and  _13
REMARK    7  A    between atoms: _12  and  _15
REMARK    8  A    between atoms: _15  and  _16
REMARK    9  A    between atoms: _19  and  _21
REMARK   10  A    between atoms: _21  and  _22
REMARK   11  A    between atoms: _24  and  _26
REMARK   12  A    between atoms: _26  and  _27
REMARK   13  A    between atoms: _26  and  _29
REMARK   14  A    between atoms: _29  and  _30
REMARK   15  A    between atoms: _33  and  _35
REMARK   16  A    between atoms: _35  and  _36
REMARK   17  A    between atoms: _35  and  _38
REMARK   18  A    between atoms: _38  and  _39
REMARK   19  A    between atoms: _42  and  _44
REMARK   20  A    between atoms: _44  and  _45
REMARK   21  A    between atoms: _44  and  _47
REMARK   22  A    between atoms: _47  and  _48
REMARK   23  A    between atoms: _53  and  _55
REMARK   24  A    between atoms: _55  and  _56
REMARK   25  A    between atoms: _55  and  _58
REMARK   26  A    between atoms: _58  and  _59
REMARK   27  A    between atoms: _61  and  _63
REMARK   28  A    between atoms: _63  and  _64
REMARK   29  A    between atoms: _63  and  _66
REMARK   30  A    between atoms: _68  and  _70
REMARK   31  A    between atoms: _70  and  _71
REMARK   32  A    between atoms: _70  and  _73
REMARK   33  A    between atoms: _73  and  _74
REMARK   34  A    between atoms: _77  and  _79
REMARK   35  A    between atoms: _79  and  _80
REMARK   36  A    between atoms: _79  and  _82
REMARK   37  A    between atoms: _82  and  _83
REMARK   38  A    between atoms: _87  and  _88
REMARK   39  A    between atoms: _93  and  _95
REMARK   40  A    between atoms: _95  and  _96
REMARK   41  A    between atoms: _95  and  _98
REMARK   42  A    between atoms: _98  and  _99
REMARK   43  A    between atoms: _101  and  _103
REMARK   44  A    between atoms: _103  and  _104
REMARK   45  A    between atoms: _103  and  _106
REMARK   46  A    between atoms: _106  and  _107
REMARK   47  A    between atoms: _107  and  _108
REMARK   48  A    between atoms: _108  and  _109
REMARK   49  A    between atoms: _109  and  _110
REMARK   50  A    between atoms: _114  and  _116
REMARK   51  A    between atoms: _116  and  _117
REMARK   52  A    between atoms: _120  and  _122
REMARK   53  A    between atoms: _122  and  _123
REMARK   54  A    between atoms: _122  and  _125
REMARK   55  A    between atoms: _125  and  _126
REMARK   56  A    between atoms: _126  and  _127
REMARK   57  A    between atoms: _127  and  _128
REMARK   58  A    between atoms: _128  and  _129
REMARK   59  A    between atoms: _133  and  _135
REMARK   60  A    between atoms: _135  and  _136
REMARK   61  A    between atoms: _135  and  _138
REMARK   62  A    between atoms: _138  and  _139
REMARK   63  A    between atoms: _139  and  _140
REMARK   64  A    between atoms: _140  and  _141
REMARK   65  A    between atoms: _150  and  _152
REMARK   66  A    between atoms: _152  and  _153
REMARK   67  A    between atoms: _152  and  _155
REMARK   68  A    between atoms: _155  and  _156
REMARK   69  A    between atoms: _159  and  _161
REMARK   70  A    between atoms: _161  and  _162
REMARK   71  A    between atoms: _161  and  _164
REMARK   72  A    between atoms: _168  and  _169
REMARK   73  A    between atoms: _174  and  _176
REMARK   74  A    between atoms: _176  and  _177
REMARK   75  A    between atoms: _180  and  _182
REMARK   76  A    between atoms: _182  and  _183
REMARK   77  A    between atoms: _182  and  _185
REMARK   78  A    between atoms: _185  and  _186
REMARK   79  A    between atoms: _192  and  _194
REMARK   80  A    between atoms: _194  and  _195
REMARK   81  A    between atoms: _194  and  _197
REMARK   82  A    between atoms: _197  and  _198
REMARK   83  A    between atoms: _198  and  _199
REMARK   84  A    between atoms: _202  and  _204
REMARK   85  A    between atoms: _204  and  _205
REMARK   86  A    between atoms: _204  and  _207
REMARK   87  A    between atoms: _207  and  _208
REMARK   88  A    between atoms: _211  and  _213
REMARK   89  A    between atoms: _213  and  _214
REMARK   90  A    between atoms: _213  and  _216
REMARK   91  A    between atoms: _216  and  _217
REMARK   92  A    between atoms: _220  and  _222
REMARK   93  A    between atoms: _222  and  _223
REMARK   94  A    between atoms: _225  and  _227
REMARK   95  A    between atoms: _227  and  _228
REMARK   96  A    between atoms: _230  and  _232
REMARK   97  A    between atoms: _232  and  _233
REMARK   98  A    between atoms: _235  and  _237
REMARK   99  A    between atoms: _237  and  _238
REMARK  100  A    between atoms: _241  and  _243
REMARK  101  A    between atoms: _243  and  _244
REMARK  102  A    between atoms: _243  and  _246
REMARK  103  A    between atoms: _246  and  _247
REMARK  104  A    between atoms: _253  and  _255
REMARK  105  A    between atoms: _255  and  _256
REMARK  106  A    between atoms: _255  and  _258
REMARK  107  A    between atoms: _258  and  _259
REMARK  108  A    between atoms: _262  and  _264
REMARK  109  A    between atoms: _264  and  _265
REMARK  110  A    between atoms: _264  and  _267
REMARK  111  A    between atoms: _267  and  _268
REMARK  112  A    between atoms: _271  and  _273
REMARK  113  A    between atoms: _273  and  _274
REMARK  114  A    between atoms: _273  and  _276
REMARK  115  A    between atoms: _276  and  _277
REMARK  116  A    between atoms: _280  and  _282
REMARK  117  A    between atoms: _282  and  _283
REMARK  118  A    between atoms: _282  and  _285
REMARK  119  A    between atoms: _285  and  _286
REMARK  120  A    between atoms: _289  and  _291
REMARK  121  A    between atoms: _291  and  _292
REMARK  122  A    between atoms: _294  and  _296
REMARK  123  A    between atoms: _296  and  _297
REMARK  124  A    between atoms: _299  and  _301
REMARK  125  A    between atoms: _301  and  _302
REMARK  126  A    between atoms: _301  and  _304
REMARK  127  A    between atoms: _304  and  _305
REMARK  128  A    between atoms: _305  and  _306
REMARK  129  A    between atoms: _309  and  _311
REMARK  130  A    between atoms: _311  and  _312
REMARK  131  A    between atoms: _311  and  _314
REMARK  132  A    between atoms: _314  and  _315
REMARK  133  A    between atoms: _318  and  _320
REMARK  134  A    between atoms: _320  and  _321
REMARK  135  A    between atoms: _320  and  _323
REMARK  136  A    between atoms: _323  and  _324
REMARK  137  A    between atoms: _330  and  _332
REMARK  138  A    between atoms: _332  and  _333
REMARK  139  A    between atoms: _332  and  _335
REMARK  140  A    between atoms: _335  and  _336
REMARK  141  A    between atoms: _339  and  _341
REMARK  142  A    between atoms: _341  and  _342
REMARK  143  A    between atoms: _341  and  _344
REMARK  144  A    between atoms: _344  and  _345
REMARK  145  A    between atoms: _345  and  _346
REMARK  146  A    between atoms: _346  and  _347
REMARK  147  A    between atoms: _347  and  _348
REMARK  148  A    between atoms: _352  and  _354
REMARK  149  A    between atoms: _354  and  _355
REMARK  150  A    between atoms: _358  and  _360
REMARK  151  A    between atoms: _360  and  _361
REMARK  152  A    between atoms: _360  and  _363
REMARK  153  A    between atoms: _363  and  _364
REMARK  154  A    between atoms: _364  and  _365
REMARK  155  A    between atoms: _368  and  _370
REMARK  156  A    between atoms: _370  and  _371
REMARK  157  A    between atoms: _370  and  _373
REMARK  158  A    between atoms: _373  and  _374
REMARK  159  A    between atoms: _374  and  _375
REMARK  160  A    between atoms: _375  and  _376
REMARK  161  A    between atoms: _376  and  _377
REMARK  162  A    between atoms: _381  and  _383
REMARK  163  A    between atoms: _383  and  _384
REMARK  164  A    between atoms: _387  and  _389
REMARK  165  A    between atoms: _389  and  _390
REMARK  166  A    between atoms: _389  and  _392
REMARK  167  A    between atoms: _392  and  _393
REMARK  168  A    between atoms: _393  and  _394
REMARK  169  A    between atoms: _394  and  _395
REMARK  170  A    between atoms: _395  and  _396
REMARK  171  A    between atoms: _400  and  _402
REMARK  172  A    between atoms: _402  and  _403
REMARK  173  A    between atoms: _402  and  _405
REMARK  174  A    between atoms: _405  and  _406
REMARK  175  A    between atoms: _409  and  _411
REMARK  176  A    between atoms: _411  and  _412
REMARK  177  A    between atoms: _411  and  _414
REMARK  178  A    between atoms: _414  and  _415
REMARK  179  A    between atoms: _415  and  _416
REMARK  180  A    between atoms: _419  and  _421
REMARK  181  A    between atoms: _421  and  _422
REMARK  182  A    between atoms: _421  and  _424
REMARK  183  A    between atoms: _424  and  _425
REMARK  184  A    between atoms: _428  and  _430
REMARK  185  A    between atoms: _430  and  _431
REMARK  186  A    between atoms: _430  and  _433
REMARK  187  A    between atoms: _433  and  _434
REMARK  188  A    between atoms: _436  and  _438
REMARK  189  A    between atoms: _438  and  _439
REMARK  190  A    between atoms: _438  and  _441
REMARK  191  A    between atoms: _441  and  _442
REMARK  192  A    between atoms: _444  and  _446
REMARK  193  A    between atoms: _446  and  _447
REMARK  194  A    between atoms: _450  and  _452
REMARK  195  A    between atoms: _452  and  _453
REMARK  196  A    between atoms: _452  and  _455
REMARK  197  A    between atoms: _455  and  _456
REMARK  198  A    between atoms: _459  and  _461
REMARK  199  A    between atoms: _461  and  _462
REMARK  200  A    between atoms: _461  and  _464
REMARK  201  A    between atoms: _467  and  _469
REMARK  202  A    between atoms: _469  and  _470
REMARK  203  A    between atoms: _472  and  _474
REMARK  204  A    between atoms: _474  and  _475
REMARK  205  A    between atoms: _477  and  _479
REMARK  206  A    between atoms: _479  and  _480
REMARK  207  A    between atoms: _479  and  _482
REMARK  208  A    between atoms: _482  and  _483
REMARK  209  A    between atoms: _483  and  _484
REMARK  210  A    between atoms: _489  and  _491
REMARK  211  A    between atoms: _491  and  _492
REMARK  212  A    between atoms: _491  and  _494
REMARK  213  A    between atoms: _494  and  _495
REMARK  214  A    between atoms: _498  and  _500
REMARK  215  A    between atoms: _500  and  _501
REMARK  216  A    between atoms: _500  and  _503
REMARK  217  A    between atoms: _503  and  _504
REMARK  218  A    between atoms: _504  and  _505
REMARK  219  A    between atoms: _505  and  _506
REMARK  220  A    between atoms: _515  and  _517
REMARK  221  A    between atoms: _517  and  _518
REMARK  222  A    between atoms: _517  and  _520
REMARK  223  A    between atoms: _520  and  _521
REMARK  224  A    between atoms: _521  and  _522
REMARK  225  A    between atoms: _525  and  _526
REMARK  226  A    between atoms: _531  and  _533
REMARK  227  A    between atoms: _533  and  _534
REMARK  228  A    between atoms: _533  and  _536
REMARK  229  A    between atoms: _539  and  _541
REMARK  230  A    between atoms: _541  and  _542
REMARK  231  A    between atoms: _541  and  _544
REMARK  232  A    between atoms: _544  and  _545
REMARK  233  A    between atoms: _545  and  _546
REMARK  234  A    between atoms: _552  and  _553
REMARK  235  A    between atoms: _558  and  _560
REMARK  236  A    between atoms: _560  and  _561
REMARK  237  A    between atoms: _560  and  _563
REMARK  238  A    between atoms: _563  and  _564
REMARK  239  A    between atoms: _567  and  _569
REMARK  240  A    between atoms: _569  and  _570
REMARK  241  A    between atoms: _569  and  _572
REMARK  242  A    between atoms: _572  and  _573
REMARK  243  A    between atoms: _573  and  _574
REMARK  244  A    between atoms: _577  and  _579
REMARK  245  A    between atoms: _579  and  _580
REMARK  246  A    between atoms: _579  and  _582
REMARK  247  A    between atoms: _585  and  _587
REMARK  248  A    between atoms: _587  and  _588
REMARK  249  A    between atoms: _591  and  _593
REMARK  250  A    between atoms: _593  and  _594
REMARK  251  A    between atoms: _593  and  _596
REMARK  252  A    between atoms: _596  and  _597
REMARK  253  A    between atoms: _597  and  _598
REMARK  254  A    between atoms: _601  and  _603
REMARK  255  A    between atoms: _603  and  _604
REMARK  256  A    between atoms: _606  and  _608
REMARK  257  A    between atoms: _608  and  _609
REMARK  258  A    between atoms: _608  and  _611
REMARK  259  A    between atoms: _611  and  _612
REMARK                            x       y       z     vdW  Elec       q    Type
REMARK                         _______ _______ _______ _____ _____    ______ ____
ROOT
ATOM      1  C   THR A   4      15.503  79.725  24.667  0.00  0.00    +0.243 C 
ATOM      2  N   THR A   5      16.430  78.920  25.171  0.00  0.00    -0.295 N 
ATOM      3  H   THR A   5      16.130  78.053  25.661  0.00  0.00    +0.150 HD
ATOM      4  O   THR A   4      15.770  80.713  23.970  0.00  0.00    -0.273 OA
ENDROOT
BRANCH   2   5
ATOM      5  CA  THR A   5      17.856  79.209  25.062  0.00  0.00    +0.176 C 
BRANCH   5   6
ATOM      6  C   THR A   5      18.540  78.314  24.033  0.00  0.00    +0.243 C 
ATOM      7  N   ASN A   6      18.244  77.021  24.106  0.00  0.00    -0.297 N 
ATOM      8  H   ASN A   6      17.525  76.705  24.788  0.00  0.00    +0.150 HD
ATOM      9  O   THR A   5      19.332  78.777  23.211  0.00  0.00    -0.273 OA
BRANCH   7  10
ATOM     10  CA  ASN A   6      18.898  76.032  23.259  0.00  0.00    +0.158 C 
BRANCH  10  11
ATOM     11  C   ASN A   6      17.896  75.091  22.606  0.00  0.00    +0.241 C 
ATOM     12  O   ASN A   6      16.869  74.754  23.199  0.00  0.00    -0.273 OA
ATOM     13  N   SER A   7      18.213  74.645  21.394  0.00  0.00    -0.295 N 
ATOM     14  H   SER A   7      19.073  74.995  20.926  0.00  0.00    +0.150 HD
BRANCH  13  15
ATOM     15  CA  SER A   7      17.370  73.672  20.716  0.00  0.00    +0.178 C 
BRANCH  15  16
ATOM     16  C   SER A   7      18.156  72.414  20.378  0.00  0.00    +0.243 C 
ATOM     17  O   SER A   7      19.380  72.443  20.268  0.00  0.00    -0.273 OA
ATOM     18  N   CYS A   8      17.441  71.304  20.226  0.00  0.00    -0.297 N 
ATOM     19  H   CYS A   8      16.404  71.369  20.187  0.00  0.00    +0.150 HD
BRANCH  18  20
ATOM     20  CA  CYS A   8      18.073  70.005  20.114  0.00  0.00    +0.149 C 
BRANCH  20  21
ATOM     21  C   CYS A   8      17.176  69.120  19.269  0.00  0.00    +0.228 C 
ATOM     22  O   CYS A   8      15.969  69.137  19.436  0.00  0.00    -0.286 OA
ENDBRANCH  20  21
BRANCH  20  23
ATOM     23  CB  CYS A   8      18.233  69.397  21.514  0.00  0.00    +0.096 C 
ATOM     24  SG  CYS A   8      19.155  67.843  21.563  0.00  0.00    -0.080 S 
ENDBRANCH  20  23
ENDBRANCH  18  20
ENDBRANCH  15  16
BRANCH  15  25
ATOM     25  CB  SER A   7      16.726  74.296  19.472  0.00  0.00    +0.166 C 
BRANCH  25  26
ATOM     26  OG  SER A   7      15.848  75.335  19.874  0.00  0.00    -0.380 OA
ATOM     27  H   SER A   7      16.359  76.025  20.366  0.00  0.00    +0.211 HD
ENDBRANCH  25  26
ENDBRANCH  15  25
ENDBRANCH  13  15
ENDBRANCH  10  11
BRANCH  10  28
ATOM     28  CB  ASN A   6      19.899  75.198  24.074  0.00  0.00    +0.114 C 
BRANCH  28  29
ATOM     29  CG  ASN A   6      20.953  76.054  24.763  0.00  0.00    +0.222 C 
ATOM     30  ND2 ASN A   6      20.926  76.072  26.090  0.00  0.00    -0.329 N 
ATOM     31 HD21 ASN A   6      21.633  76.623  26.617  0.00  0.00    +0.145 HD
ATOM     32 HD22 ASN A   6      20.198  75.535  26.603  0.00  0.00    +0.145 HD
ATOM     33  OD1 ASN A   6      21.795  76.673  24.104  0.00  0.00    -0.275 OA
ENDBRANCH  28  29
ENDBRANCH  10  28
ENDBRANCH   7  10
ENDBRANCH   5   6
BRANCH   5  34
ATOM     34  CB  THR A   5      18.549  78.980  26.424  0.00  0.00    +0.137 C 
ATOM     35  CG2 THR A   5      19.993  79.473  26.385  0.00  0.00    +0.034 C 
BRANCH  34  36
ATOM     36  OG1 THR A   5      17.823  79.677  27.445  0.00  0.00    -0.382 OA
ATOM     37  HG1 THR A   5      17.810  80.645  27.237  0.00  0.00    +0.210 HD
ENDBRANCH  34  36
ENDBRANCH   5  34
ENDBRANCH   2   5
BRANCH   1  38
ATOM     38  CA  THR A   4      14.062  79.352  24.994  0.00  0.00    +0.176 C 
BRANCH  38  40
ATOM     39  C   GLY A   3      14.147  77.305  23.691  0.00  0.00    +0.243 C 
ATOM     40  N   THR A   4      13.892  77.917  24.842  0.00  0.00    -0.295 N 
ATOM     41  H   THR A   4      13.563  77.356  25.653  0.00  0.00    +0.150 HD
ATOM     42  O   GLY A   3      14.457  77.910  22.661  0.00  0.00    -0.273 OA
BRANCH  39  43
ATOM     43  CA  GLY A   3      14.032  75.796  23.705  0.00  0.00    +0.176 C 
BRANCH  43  46
ATOM     44  C   LEU A   2      12.609  74.812  22.000  0.00  0.00    +0.241 C 
ATOM     45  O   LEU A   2      11.582  75.062  22.639  0.00  0.00    -0.273 OA
ATOM     46  N   GLY A   3      13.824  75.183  22.403  0.00  0.00    -0.295 N 
ATOM     47  H   GLY A   3      14.639  75.031  21.774  0.00  0.00    +0.150 HD
BRANCH  44  48
ATOM     48  CA  LEU A   2      12.537  74.021  20.701  0.00  0.00    +0.149 C 
BRANCH  48  50
ATOM     49  C   ASP A   1      13.473  71.817  21.107  0.00  0.00    +0.239 C 
ATOM     50  N   LEU A   2      12.407  72.613  21.049  0.00  0.00    -0.297 N 
ATOM     51  H   LEU A   2      11.466  72.222  21.256  0.00  0.00    +0.150 HD
ATOM     52  O   ASP A   1      14.608  72.206  20.841  0.00  0.00    -0.274 OA
BRANCH  49  53
ATOM     53  CA  ASP A   1      13.230  70.363  21.491  0.00  0.00    +0.156 C 
BRANCH  53  54
ATOM     54  N   ASP A   1      13.384  69.578  20.277  0.00  0.00    -0.238 NA
ATOM     55  H   ASP A   1      14.280  69.079  20.103  0.00  0.00    +0.142 HD
ENDBRANCH  53  54
BRANCH  53  56
ATOM     56  CB  ASP A   1      14.252  69.907  22.532  0.00  0.00    +0.140 C 
BRANCH  56  57
ATOM     57  CG  ASP A   1      14.260  70.782  23.779  0.00  0.00    +0.367 C 
ATOM     58  OD2 ASP A   1      15.003  70.444  24.723  0.00  0.00    -0.246 OA
ATOM     59  OD1 ASP A   1      13.545  71.807  23.811  0.00  0.00    -0.246 OA
ENDBRANCH  56  57
ENDBRANCH  53  56
ENDBRANCH  49  53
ENDBRANCH  48  50
BRANCH  48  60
ATOM     60  CB  LEU A   2      11.346  74.490  19.854  0.00  0.00    +0.029 C 
BRANCH  60  61
ATOM     61  CG  LEU A   2      11.277  75.983  19.516  0.00  0.00    +0.002 C 
ATOM     62  CD2 LEU A   2       9.996  76.339  18.744  0.00  0.00    +0.000 C 
ATOM     63  CD1 LEU A   2      12.513  76.433  18.742  0.00  0.00    +0.000 C 
ENDBRANCH  60  61
ENDBRANCH  48  60
ENDBRANCH  44  48
ENDBRANCH  43  46
ENDBRANCH  39  43
ENDBRANCH  38  40
BRANCH  38  64
ATOM     64  CB  THR A   4      13.772  79.792  26.447  0.00  0.00    +0.137 C 
ATOM     65  CG2 THR A   4      14.009  81.284  26.614  0.00  0.00    +0.034 C 
BRANCH  64  66
ATOM     66  OG1 THR A   4      12.413  79.486  26.783  0.00  0.00    -0.382 OA
ATOM     67  HG1 THR A   4      12.265  78.511  26.699  0.00  0.00    +0.210 HD
ENDBRANCH  64  66
ENDBRANCH  38  64
ENDBRANCH   1  38
TORSDOF 29
REMARK  Name = ../refined-set-2016/4jne/4jne_pocket.pdb
REMARK  259 active torsions:
REMARK  status: ('A' for Active; 'I' for Inactive)
REMARK    1  A    between atoms: _1  and  _3
REMARK    2  A    between atoms: _3  and  _4
REMARK    3  A    between atoms: _3  and  _6
REMARK    4  A    between atoms: _6  and  _7
REMARK    5  A    between atoms: _10  and  _12
REMARK    6  A    between atoms: _12  and  _13
REMARK    7  A    between atoms: _12  and  _15
REMARK    8  A    between atoms: _15  and  _16
REMARK    9  A    between atoms: _19  and  _21
REMARK   10  A    between atoms: _21  and  _22
REMARK   11  A    between atoms: _24  and  _26
REMARK   12  A    between atoms: _26  and  _27
REMARK   13  A    between atoms: _26  and  _29
REMARK   14  A    between atoms: _29  and  _30
REMARK   15  A    between atoms: _33  and  _35
REMARK   16  A    between atoms: _35  and  _36
REMARK   17  A    between atoms: _35  and  _38
REMARK   18  A    between atoms: _38  and  _39
REMARK   19  A    between atoms: _42  and  _44
REMARK   20  A    between atoms: _44  and  _45
REMARK   21  A    between atoms: _44  and  _47
REMARK   22  A    between atoms: _47  and  _48
REMARK   23  A    between atoms: _53  and  _55
REMARK   24  A    between atoms: _55  and  _56
REMARK   25  A    between atoms: _55  and  _58
REMARK   26  A    between atoms: _58  and  _59
REMARK   27  A    between atoms: _61  and  _63
REMARK   28  A    between atoms: _63  and  _64
REMARK   29  A    between atoms: _63  and  _66
REMARK   30  A    between atoms: _68  and  _70
REMARK   31  A    between atoms: _70  and  _71
REMARK   32  A    between atoms: _70  and  _73
REMARK   33  A    between atoms: _73  and  _74
REMARK   34  A    between atoms: _77  and  _79
REMARK   35  A    between atoms: _79  and  _80
REMARK   36  A    between atoms: _79  and  _82
REMARK   37  A    between atoms: _82  and  _83
REMARK   38  A    between atoms: _87  and  _88
REMARK   39  A    between atoms: _93  and  _95
REMARK   40  A    between atoms: _95  and  _96
REMARK   41  A    between atoms: _95  and  _98
REMARK   42  A    between atoms: _98  and  _99
REMARK   43  A    between atoms: _101  and  _103
REMARK   44  A    between atoms: _103  and  _104
REMARK   45  A    between atoms: _103  and  _106
REMARK   46  A    between atoms: _106  and  _107
REMARK   47  A    between atoms: _107  and  _108
REMARK   48  A    between atoms: _108  and  _109
REMARK   49  A    between atoms: _109  and  _110
REMARK   50  A    between atoms: _114  and  _116
REMARK   51  A    between atoms: _116  and  _117
REMARK   52  A    between atoms: _120  and  _122
REMARK   53  A    between atoms: _122  and  _123
REMARK   54  A    between atoms: _122  and  _125
REMARK   55  A    between atoms: _125  and  _126
REMARK   56  A    between atoms: _126  and  _127
REMARK   57  A    between atoms: _127  and  _128
REMARK   58  A    between atoms: _128  and  _129
REMARK   59  A    between atoms: _133  and  _135
REMARK   60  A    between atoms: _135  and  _136
REMARK   61  A    between atoms: _135  and  _138
REMARK   62  A    between atoms: _138  and  _139
REMARK   63  A    between atoms: _139  and  _140
REMARK   64  A    between atoms: _140  and  _141
REMARK   65  A    between atoms: _150  and  _152
REMARK   66  A    between atoms: _152  and  _153
REMARK   67  A    between atoms: _152  and  _155
REMARK   68  A    between atoms: _155  and  _156
REMARK   69  A    between atoms: _159  and  _161
REMARK   70  A    between atoms: _161  and  _162
REMARK   71  A    between atoms: _161  and  _164
REMARK   72  A    between atoms: _168  and  _169
REMARK   73  A    between atoms: _174  and  _176
REMARK   74  A    between atoms: _176  and  _177
REMARK   75  A    between atoms: _180  and  _182
REMARK   76  A    between atoms: _182  and  _183
REMARK   77  A    between atoms: _182  and  _185
REMARK   78  A    between atoms: _185  and  _186
REMARK   79  A    between atoms: _192  and  _194
REMARK   80  A    between atoms: _194  and  _195
REMARK   81  A    between atoms: _194  and  _197
REMARK   82  A    between atoms: _197  and  _198
REMARK   83  A    between atoms: _198  and  _199
REMARK   84  A    between atoms: _202  and  _204
REMARK   85  A    between atoms: _204  and  _205
REMARK   86  A    between atoms: _204  and  _207
REMARK   87  A    between atoms: _207  and  _208
REMARK   88  A    between atoms: _211  and  _213
REMARK   89  A    between atoms: _213  and  _214
REMARK   90  A    between atoms: _213  and  _216
REMARK   91  A    between atoms: _216  and  _217
REMARK   92  A    between atoms: _220  and  _222
REMARK   93  A    between atoms: _222  and  _223
REMARK   94  A    between atoms: _225  and  _227
REMARK   95  A    between atoms: _227  and  _228
REMARK   96  A    between atoms: _230  and  _232
REMARK   97  A    between atoms: _232  and  _233
REMARK   98  A    between atoms: _235  and  _237
REMARK   99  A    between atoms: _237  and  _238
REMARK  100  A    between atoms: _241  and  _243
REMARK  101  A    between atoms: _243  and  _244
REMARK  102  A    between atoms: _243  and  _246
REMARK  103  A    between atoms: _246  and  _247
REMARK  104  A    between atoms: _253  and  _255
REMARK  105  A    between atoms: _255  and  _256
REMARK  106  A    between atoms: _255  and  _258
REMARK  107  A    between atoms: _258  and  _259
REMARK  108  A    between atoms: _262  and  _264
REMARK  109  A    between atoms: _264  and  _265
REMARK  110  A    between atoms: _264  and  _267
REMARK  111  A    between atoms: _267  and  _268
REMARK  112  A    between atoms: _271  and  _273
REMARK  113  A    between atoms: _273  and  _274
REMARK  114  A    between atoms: _273  and  _276
REMARK  115  A    between atoms: _276  and  _277
REMARK  116  A    between atoms: _280  and  _282
REMARK  117  A    between atoms: _282  and  _283
REMARK  118  A    between atoms: _282  and  _285
REMARK  119  A    between atoms: _285  and  _286
REMARK  120  A    between atoms: _289  and  _291
REMARK  121  A    between atoms: _291  and  _292
REMARK  122  A    between atoms: _294  and  _296
REMARK  123  A    between atoms: _296  and  _297
REMARK  124  A    between atoms: _299  and  _301
REMARK  125  A    between atoms: _301  and  _302
REMARK  126  A    between atoms: _301  and  _304
REMARK  127  A    between atoms: _304  and  _305
REMARK  128  A    between atoms: _305  and  _306
REMARK  129  A    between atoms: _309  and  _311
REMARK  130  A    between atoms: _311  and  _312
REMARK  131  A    between atoms: _311  and  _314
REMARK  132  A    between atoms: _314  and  _315
REMARK  133  A    between atoms: _318  and  _320
REMARK  134  A    between atoms: _320  and  _321
REMARK  135  A    between atoms: _320  and  _323
REMARK  136  A    between atoms: _323  and  _324
REMARK  137  A    between atoms: _330  and  _332
REMARK  138  A    between atoms: _332  and  _333
REMARK  139  A    between atoms: _332  and  _335
REMARK  140  A    between atoms: _335  and  _336
REMARK  141  A    between atoms: _339  and  _341
REMARK  142  A    between atoms: _341  and  _342
REMARK  143  A    between atoms: _341  and  _344
REMARK  144  A    between atoms: _344  and  _345
REMARK  145  A    between atoms: _345  and  _346
REMARK  146  A    between atoms: _346  and  _347
REMARK  147  A    between atoms: _347  and  _348
REMARK  148  A    between atoms: _352  and  _354
REMARK  149  A    between atoms: _354  and  _355
REMARK  150  A    between atoms: _358  and  _360
REMARK  151  A    between atoms: _360  and  _361
REMARK  152  A    between atoms: _360  and  _363
REMARK  153  A    between atoms: _363  and  _364
REMARK  154  A    between atoms: _364  and  _365
REMARK  155  A    between atoms: _368  and  _370
REMARK  156  A    between atoms: _370  and  _371
REMARK  157  A    between atoms: _370  and  _373
REMARK  158  A    between atoms: _373  and  _374
REMARK  159  A    between atoms: _374  and  _375
REMARK  160  A    between atoms: _375  and  _376
REMARK  161  A    between atoms: _376  and  _377
REMARK  162  A    between atoms: _381  and  _383
REMARK  163  A    between atoms: _383  and  _384
REMARK  164  A    between atoms: _387  and  _389
REMARK  165  A    between atoms: _389  and  _390
REMARK  166  A    between atoms: _389  and  _392
REMARK  167  A    between atoms: _392  and  _393
REMARK  168  A    between atoms: _393  and  _394
REMARK  169  A    between atoms: _394  and  _395
REMARK  170  A    between atoms: _395  and  _396
REMARK  171  A    between atoms: _400  and  _402
REMARK  172  A    between atoms: _402  and  _403
REMARK  173  A    between atoms: _402  and  _405
REMARK  174  A    between atoms: _405  and  _406
REMARK  175  A    between atoms: _409  and  _411
REMARK  176  A    between atoms: _411  and  _412
REMARK  177  A    between atoms: _411  and  _414
REMARK  178  A    between atoms: _414  and  _415
REMARK  179  A    between atoms: _415  and  _416
REMARK  180  A    between atoms: _419  and  _421
REMARK  181  A    between atoms: _421  and  _422
REMARK  182  A    between atoms: _421  and  _424
REMARK  183  A    between atoms: _424  and  _425
REMARK  184  A    between atoms: _428  and  _430
REMARK  185  A    between atoms: _430  and  _431
REMARK  186  A    between atoms: _430  and  _433
REMARK  187  A    between atoms: _433  and  _434
REMARK  188  A    between atoms: _436  and  _438
REMARK  189  A    between atoms: _438  and  _439
REMARK  190  A    between atoms: _438  and  _441
REMARK  191  A    between atoms: _441  and  _442
REMARK  192  A    between atoms: _444  and  _446
REMARK  193  A    between atoms: _446  and  _447
REMARK  194  A    between atoms: _450  and  _452
REMARK  195  A    between atoms: _452  and  _453
REMARK  196  A    between atoms: _452  and  _455
REMARK  197  A    between atoms: _455  and  _456
REMARK  198  A    between atoms: _459  and  _461
REMARK  199  A    between atoms: _461  and  _462
REMARK  200  A    between atoms: _461  and  _464
REMARK  201  A    between atoms: _467  and  _469
REMARK  202  A    between atoms: _469  and  _470
REMARK  203  A    between atoms: _472  and  _474
REMARK  204  A    between atoms: _474  and  _475
REMARK  205  A    between atoms: _477  and  _479
REMARK  206  A    between atoms: _479  and  _480
REMARK  207  A    between atoms: _479  and  _482
REMARK  208  A    between atoms: _482  and  _483
REMARK  209  A    between atoms: _483  and  _484
REMARK  210  A    between atoms: _489  and  _491
REMARK  211  A    between atoms: _491  and  _492
REMARK  212  A    between atoms: _491  and  _494
REMARK  213  A    between atoms: _494  and  _495
REMARK  214  A    between atoms: _498  and  _500
REMARK  215  A    between atoms: _500  and  _501
REMARK  216  A    between atoms: _500  and  _503
REMARK  217  A    between atoms: _503  and  _504
REMARK  218  A    between atoms: _504  and  _505
REMARK  219  A    between atoms: _505  and  _506
REMARK  220  A    between atoms: _515  and  _517
REMARK  221  A    between atoms: _517  and  _518
REMARK  222  A    between atoms: _517  and  _520
REMARK  223  A    between atoms: _520  and  _521
REMARK  224  A    between atoms: _521  and  _522
REMARK  225  A    between atoms: _525  and  _526
REMARK  226  A    between atoms: _531  and  _533
REMARK  227  A    between atoms: _533  and  _534
REMARK  228  A    between atoms: _533  and  _536
REMARK  229  A    between atoms: _539  and  _541
REMARK  230  A    between atoms: _541  and  _542
REMARK  231  A    between atoms: _541  and  _544
REMARK  232  A    between atoms: _544  and  _545
REMARK  233  A    between atoms: _545  and  _546
REMARK  234  A    between atoms: _552  and  _553
REMARK  235  A    between atoms: _558  and  _560
REMARK  236  A    between atoms: _560  and  _561
REMARK  237  A    between atoms: _560  and  _563
REMARK  238  A    between atoms: _563  and  _564
REMARK  239  A    between atoms: _567  and  _569
REMARK  240  A    between atoms: _569  and  _570
REMARK  241  A    between atoms: _569  and  _572
REMARK  242  A    between atoms: _572  and  _573
REMARK  243  A    between atoms: _573  and  _574
REMARK  244  A    between atoms: _577  and  _579
REMARK  245  A    between atoms: _579  and  _580
REMARK  246  A    between atoms: _579  and  _582
REMARK  247  A    between atoms: _585  and  _587
REMARK  248  A    between atoms: _587  and  _588
REMARK  249  A    between atoms: _591  and  _593
REMARK  250  A    between atoms: _593  and  _594
REMARK  251  A    between atoms: _593  and  _596
REMARK  252  A    between atoms: _596  and  _597
REMARK  253  A    between atoms: _597  and  _598
REMARK  254  A    between atoms: _601  and  _603
REMARK  255  A    between atoms: _603  and  _604
REMARK  256  A    between atoms: _606  and  _608
REMARK  257  A    between atoms: _608  and  _609
REMARK  258  A    between atoms: _608  and  _611
REMARK  259  A    between atoms: _611  and  _612
REMARK                            x       y       z     vdW  Elec       q    Type
REMARK                         _______ _______ _______ _____ _____    ______ ____
ROOT
ATOM      1  C   THR A   2      21.298  76.093  19.697  0.00  0.00    +0.246 C 
ATOM      2  O   THR A   2      20.155  76.008  20.141  0.00  0.00    -0.273 OA
ATOM      3  N   PRO A   3      22.038  77.204  19.819  0.00  0.00    -0.272 N 
ATOM      4  CA  PRO A   3      21.451  78.361  20.500  0.00  0.00    +0.152 C 
ATOM      5  CB  PRO A   3      22.572  79.401  20.450  0.00  0.00    +0.031 C 
ATOM      6  CG  PRO A   3      23.852  78.560  20.373  0.00  0.00    +0.024 C 
ATOM      7  CD  PRO A   3      23.453  77.422  19.467  0.00  0.00    +0.094 C 
ENDROOT
BRANCH   4   8
ATOM      8  C   PRO A   3      20.225  78.870  19.749  0.00  0.00    +0.241 C 
ATOM      9  N   SER A   4      19.127  79.087  20.465  0.00  0.00    -0.296 N 
ATOM     10  H   SER A   4      19.149  78.909  21.490  0.00  0.00    +0.150 HD
ATOM     11  O   PRO A   3      20.295  79.062  18.536  0.00  0.00    -0.273 OA
BRANCH   9  12
ATOM     12  CA  SER A   4      17.890  79.568  19.854  0.00  0.00    +0.166 C 
BRANCH  12  13
ATOM     13  C   SER A   4      17.979  81.062  19.591  0.00  0.00    +0.229 C 
ATOM     14  O   SER A   4      17.243  81.862  20.174  0.00  0.00    -0.286 OA
ENDBRANCH  12  13
BRANCH  12  15
ATOM     15  CB  SER A   4      16.702  79.244  20.753  0.00  0.00    +0.165 C 
BRANCH  15  16
ATOM     16  OG  SER A   4      16.597  77.839  20.918  0.00  0.00    -0.380 OA
ATOM     17  H   SER A   4      15.825  77.633  21.502  0.00  0.00    +0.211 HD
ENDBRANCH  15  16
ENDBRANCH  12  15
ENDBRANCH   9  12
ENDBRANCH   4   8
BRANCH   1  18
ATOM     18  CA  THR A   2      21.925  74.909  18.974  0.00  0.00    +0.176 C 
BRANCH  18  20
ATOM     19  C   THR A   1      22.838  72.940  20.113  0.00  0.00    +0.241 C 
ATOM     20  N   THR A   2      21.804  73.724  19.808  0.00  0.00    -0.295 N 
ATOM     21  H   THR A   2      20.867  73.476  20.184  0.00  0.00    +0.150 HD
ATOM     22  O   THR A   1      24.004  73.200  19.802  0.00  0.00    -0.274 OA
BRANCH  19  23
ATOM     23  CA  THR A   1      22.508  71.673  20.895  0.00  0.00    +0.172 C 
BRANCH  23  24
ATOM     24  N   THR A   1      23.593  70.691  20.763  0.00  0.00    -0.236 NA
ATOM     25  H   THR A   1      24.574  70.979  20.954  0.00  0.00    +0.142 HD
ENDBRANCH  23  24
BRANCH  23  26
ATOM     26  CB  THR A   1      22.171  72.023  22.374  0.00  0.00    +0.135 C 
ATOM     27  CG2 THR A   1      21.984  70.762  23.207  0.00  0.00    +0.034 C 
BRANCH  26  28
ATOM     28  OG1 THR A   1      23.207  72.834  22.938  0.00  0.00    -0.383 OA
ATOM     29  HG1 THR A   1      22.981  73.050  23.878  0.00  0.00    +0.210 HD
ENDBRANCH  26  28
ENDBRANCH  23  26
ENDBRANCH  19  23
ENDBRANCH  18  20
BRANCH  18  30
ATOM     30  CB  THR A   2      21.145  74.719  17.648  0.00  0.00    +0.137 C 
ATOM     31  CG2 THR A   2      21.215  75.971  16.780  0.00  0.00    +0.034 C 
BRANCH  30  32
ATOM     32  OG1 THR A   2      21.685  73.607  16.932  0.00  0.00    -0.382 OA
ATOM     33  HG1 THR A   2      21.603  72.789  17.484  0.00  0.00    +0.210 HD
ENDBRANCH  30  32
ENDBRANCH  18  30
ENDBRANCH   1  18
TORSDOF 13
REMARK  Name = ../refined-set-2016/4jne/4jne_pocket.pdb
REMARK  259 active torsions:
REMARK  status: ('A' for Active; 'I' for Inactive)
REMARK    1  A    between atoms: _1  and  _3
REMARK    2  A    between atoms: _3  and  _4
REMARK    3  A    between atoms: _3  and  _6
REMARK    4  A    between atoms: _6  and  _7
REMARK    5  A    between atoms: _10  and  _12
REMARK    6  A    between atoms: _12  and  _13
REMARK    7  A    between atoms: _12  and  _15
REMARK    8  A    between atoms: _15  and  _16
REMARK    9  A    between atoms: _19  and  _21
REMARK   10  A    between atoms: _21  and  _22
REMARK   11  A    between atoms: _24  and  _26
REMARK   12  A    between atoms: _26  and  _27
REMARK   13  A    between atoms: _26  and  _29
REMARK   14  A    between atoms: _29  and  _30
REMARK   15  A    between atoms: _33  and  _35
REMARK   16  A    between atoms: _35  and  _36
REMARK   17  A    between atoms: _35  and  _38
REMARK   18  A    between atoms: _38  and  _39
REMARK   19  A    between atoms: _42  and  _44
REMARK   20  A    between atoms: _44  and  _45
REMARK   21  A    between atoms: _44  and  _47
REMARK   22  A    between atoms: _47  and  _48
REMARK   23  A    between atoms: _53  and  _55
REMARK   24  A    between atoms: _55  and  _56
REMARK   25  A    between atoms: _55  and  _58
REMARK   26  A    between atoms: _58  and  _59
REMARK   27  A    between atoms: _61  and  _63
REMARK   28  A    between atoms: _63  and  _64
REMARK   29  A    between atoms: _63  and  _66
REMARK   30  A    between atoms: _68  and  _70
REMARK   31  A    between atoms: _70  and  _71
REMARK   32  A    between atoms: _70  and  _73
REMARK   33  A    between atoms: _73  and  _74
REMARK   34  A    between atoms: _77  and  _79
REMARK   35  A    between atoms: _79  and  _80
REMARK   36  A    between atoms: _79  and  _82
REMARK   37  A    between atoms: _82  and  _83
REMARK   38  A    between atoms: _87  and  _88
REMARK   39  A    between atoms: _93  and  _95
REMARK   40  A    between atoms: _95  and  _96
REMARK   41  A    between atoms: _95  and  _98
REMARK   42  A    between atoms: _98  and  _99
REMARK   43  A    between atoms: _101  and  _103
REMARK   44  A    between atoms: _103  and  _104
REMARK   45  A    between atoms: _103  and  _106
REMARK   46  A    between atoms: _106  and  _107
REMARK   47  A    between atoms: _107  and  _108
REMARK   48  A    between atoms: _108  and  _109
REMARK   49  A    between atoms: _109  and  _110
REMARK   50  A    between atoms: _114  and  _116
REMARK   51  A    between atoms: _116  and  _117
REMARK   52  A    between atoms: _120  and  _122
REMARK   53  A    between atoms: _122  and  _123
REMARK   54  A    between atoms: _122  and  _125
REMARK   55  A    between atoms: _125  and  _126
REMARK   56  A    between atoms: _126  and  _127
REMARK   57  A    between atoms: _127  and  _128
REMARK   58  A    between atoms: _128  and  _129
REMARK   59  A    between atoms: _133  and  _135
REMARK   60  A    between atoms: _135  and  _136
REMARK   61  A    between atoms: _135  and  _138
REMARK   62  A    between atoms: _138  and  _139
REMARK   63  A    between atoms: _139  and  _140
REMARK   64  A    between atoms: _140  and  _141
REMARK   65  A    between atoms: _150  and  _152
REMARK   66  A    between atoms: _152  and  _153
REMARK   67  A    between atoms: _152  and  _155
REMARK   68  A    between atoms: _155  and  _156
REMARK   69  A    between atoms: _159  and  _161
REMARK   70  A    between atoms: _161  and  _162
REMARK   71  A    between atoms: _161  and  _164
REMARK   72  A    between atoms: _168  and  _169
REMARK   73  A    between atoms: _174  and  _176
REMARK   74  A    between atoms: _176  and  _177
REMARK   75  A    between atoms: _180  and  _182
REMARK   76  A    between atoms: _182  and  _183
REMARK   77  A    between atoms: _182  and  _185
REMARK   78  A    between atoms: _185  and  _186
REMARK   79  A    between atoms: _192  and  _194
REMARK   80  A    between atoms: _194  and  _195
REMARK   81  A    between atoms: _194  and  _197
REMARK   82  A    between atoms: _197  and  _198
REMARK   83  A    between atoms: _198  and  _199
REMARK   84  A    between atoms: _202  and  _204
REMARK   85  A    between atoms: _204  and  _205
REMARK   86  A    between atoms: _204  and  _207
REMARK   87  A    between atoms: _207  and  _208
REMARK   88  A    between atoms: _211  and  _213
REMARK   89  A    between atoms: _213  and  _214
REMARK   90  A    between atoms: _213  and  _216
REMARK   91  A    between atoms: _216  and  _217
REMARK   92  A    between atoms: _220  and  _222
REMARK   93  A    between atoms: _222  and  _223
REMARK   94  A    between atoms: _225  and  _227
REMARK   95  A    between atoms: _227  and  _228
REMARK   96  A    between atoms: _230  and  _232
REMARK   97  A    between atoms: _232  and  _233
REMARK   98  A    between atoms: _235  and  _237
REMARK   99  A    between atoms: _237  and  _238
REMARK  100  A    between atoms: _241  and  _243
REMARK  101  A    between atoms: _243  and  _244
REMARK  102  A    between atoms: _243  and  _246
REMARK  103  A    between atoms: _246  and  _247
REMARK  104  A    between atoms: _253  and  _255
REMARK  105  A    between atoms: _255  and  _256
REMARK  106  A    between atoms: _255  and  _258
REMARK  107  A    between atoms: _258  and  _259
REMARK  108  A    between atoms: _262  and  _264
REMARK  109  A    between atoms: _264  and  _265
REMARK  110  A    between atoms: _264  and  _267
REMARK  111  A    between atoms: _267  and  _268
REMARK  112  A    between atoms: _271  and  _273
REMARK  113  A    between atoms: _273  and  _274
REMARK  114  A    between atoms: _273  and  _276
REMARK  115  A    between atoms: _276  and  _277
REMARK  116  A    between atoms: _280  and  _282
REMARK  117  A    between atoms: _282  and  _283
REMARK  118  A    between atoms: _282  and  _285
REMARK  119  A    between atoms: _285  and  _286
REMARK  120  A    between atoms: _289  and  _291
REMARK  121  A    between atoms: _291  and  _292
REMARK  122  A    between atoms: _294  and  _296
REMARK  123  A    between atoms: _296  and  _297
REMARK  124  A    between atoms: _299  and  _301
REMARK  125  A    between atoms: _301  and  _302
REMARK  126  A    between atoms: _301  and  _304
REMARK  127  A    between atoms: _304  and  _305
REMARK  128  A    between atoms: _305  and  _306
REMARK  129  A    between atoms: _309  and  _311
REMARK  130  A    between atoms: _311  and  _312
REMARK  131  A    between atoms: _311  and  _314
REMARK  132  A    between atoms: _314  and  _315
REMARK  133  A    between atoms: _318  and  _320
REMARK  134  A    between atoms: _320  and  _321
REMARK  135  A    between atoms: _320  and  _323
REMARK  136  A    between atoms: _323  and  _324
REMARK  137  A    between atoms: _330  and  _332
REMARK  138  A    between atoms: _332  and  _333
REMARK  139  A    between atoms: _332  and  _335
REMARK  140  A    between atoms: _335  and  _336
REMARK  141  A    between atoms: _339  and  _341
REMARK  142  A    between atoms: _341  and  _342
REMARK  143  A    between atoms: _341  and  _344
REMARK  144  A    between atoms: _344  and  _345
REMARK  145  A    between atoms: _345  and  _346
REMARK  146  A    between atoms: _346  and  _347
REMARK  147  A    between atoms: _347  and  _348
REMARK  148  A    between atoms: _352  and  _354
REMARK  149  A    between atoms: _354  and  _355
REMARK  150  A    between atoms: _358  and  _360
REMARK  151  A    between atoms: _360  and  _361
REMARK  152  A    between atoms: _360  and  _363
REMARK  153  A    between atoms: _363  and  _364
REMARK  154  A    between atoms: _364  and  _365
REMARK  155  A    between atoms: _368  and  _370
REMARK  156  A    between atoms: _370  and  _371
REMARK  157  A    between atoms: _370  and  _373
REMARK  158  A    between atoms: _373  and  _374
REMARK  159  A    between atoms: _374  and  _375
REMARK  160  A    between atoms: _375  and  _376
REMARK  161  A    between atoms: _376  and  _377
REMARK  162  A    between atoms: _381  and  _383
REMARK  163  A    between atoms: _383  and  _384
REMARK  164  A    between atoms: _387  and  _389
REMARK  165  A    between atoms: _389  and  _390
REMARK  166  A    between atoms: _389  and  _392
REMARK  167  A    between atoms: _392  and  _393
REMARK  168  A    between atoms: _393  and  _394
REMARK  169  A    between atoms: _394  and  _395
REMARK  170  A    between atoms: _395  and  _396
REMARK  171  A    between atoms: _400  and  _402
REMARK  172  A    between atoms: _402  and  _403
REMARK  173  A    between atoms: _402  and  _405
REMARK  174  A    between atoms: _405  and  _406
REMARK  175  A    between atoms: _409  and  _411
REMARK  176  A    between atoms: _411  and  _412
REMARK  177  A    between atoms: _411  and  _414
REMARK  178  A    between atoms: _414  and  _415
REMARK  179  A    between atoms: _415  and  _416
REMARK  180  A    between atoms: _419  and  _421
REMARK  181  A    between atoms: _421  and  _422
REMARK  182  A    between atoms: _421  and  _424
REMARK  183  A    between atoms: _424  and  _425
REMARK  184  A    between atoms: _428  and  _430
REMARK  185  A    between atoms: _430  and  _431
REMARK  186  A    between atoms: _430  and  _433
REMARK  187  A    between atoms: _433  and  _434
REMARK  188  A    between atoms: _436  and  _438
REMARK  189  A    between atoms: _438  and  _439
REMARK  190  A    between atoms: _438  and  _441
REMARK  191  A    between atoms: _441  and  _442
REMARK  192  A    between atoms: _444  and  _446
REMARK  193  A    between atoms: _446  and  _447
REMARK  194  A    between atoms: _450  and  _452
REMARK  195  A    between atoms: _452  and  _453
REMARK  196  A    between atoms: _452  and  _455
REMARK  197  A    between atoms: _455  and  _456
REMARK  198  A    between atoms: _459  and  _461
REMARK  199  A    between atoms: _461  and  _462
REMARK  200  A    between atoms: _461  and  _464
REMARK  201  A    between atoms: _467  and  _469
REMARK  202  A    between atoms: _469  and  _470
REMARK  203  A    between atoms: _472  and  _474
REMARK  204  A    between atoms: _474  and  _475
REMARK  205  A    between atoms: _477  and  _479
REMARK  206  A    between atoms: _479  and  _480
REMARK  207  A    between atoms: _479  and  _482
REMARK  208  A    between atoms: _482  and  _483
REMARK  209  A    between atoms: _483  and  _484
REMARK  210  A    between atoms: _489  and  _491
REMARK  211  A    between atoms: _491  and  _492
REMARK  212  A    between atoms: _491  and  _494
REMARK  213  A    between atoms: _494  and  _495
REMARK  214  A    between atoms: _498  and  _500
REMARK  215  A    between atoms: _500  and  _501
REMARK  216  A    between atoms: _500  and  _503
REMARK  217  A    between atoms: _503  and  _504
REMARK  218  A    between atoms: _504  and  _505
REMARK  219  A    between atoms: _505  and  _506
REMARK  220  A    between atoms: _515  and  _517
REMARK  221  A    between atoms: _517  and  _518
REMARK  222  A    between atoms: _517  and  _520
REMARK  223  A    between atoms: _520  and  _521
REMARK  224  A    between atoms: _521  and  _522
REMARK  225  A    between atoms: _525  and  _526
REMARK  226  A    between atoms: _531  and  _533
REMARK  227  A    between atoms: _533  and  _534
REMARK  228  A    between atoms: _533  and  _536
REMARK  229  A    between atoms: _539  and  _541
REMARK  230  A    between atoms: _541  and  _542
REMARK  231  A    between atoms: _541  and  _544
REMARK  232  A    between atoms: _544  and  _545
REMARK  233  A    between atoms: _545  and  _546
REMARK  234  A    between atoms: _552  and  _553
REMARK  235  A    between atoms: _558  and  _560
REMARK  236  A    between atoms: _560  and  _561
REMARK  237  A    between atoms: _560  and  _563
REMARK  238  A    between atoms: _563  and  _564
REMARK  239  A    between atoms: _567  and  _569
REMARK  240  A    between atoms: _569  and  _570
REMARK  241  A    between atoms: _569  and  _572
REMARK  242  A    between atoms: _572  and  _573
REMARK  243  A    between atoms: _573  and  _574
REMARK  244  A    between atoms: _577  and  _579
REMARK  245  A    between atoms: _579  and  _580
REMARK  246  A    between atoms: _579  and  _582
REMARK  247  A    between atoms: _585  and  _587
REMARK  248  A    between atoms: _587  and  _588
REMARK  249  A    between atoms: _591  and  _593
REMARK  250  A    between atoms: _593  and  _594
REMARK  251  A    between atoms: _593  and  _596
REMARK  252  A    between atoms: _596  and  _597
REMARK  253  A    between atoms: _597  and  _598
REMARK  254  A    between atoms: _601  and  _603
REMARK  255  A    between atoms: _603  and  _604
REMARK  256  A    between atoms: _606  and  _608
REMARK  257  A    between atoms: _608  and  _609
REMARK  258  A    between atoms: _608  and  _611
REMARK  259  A    between atoms: _611  and  _612
REMARK                            x       y       z     vdW  Elec       q    Type
REMARK                         _______ _______ _______ _____ _____    ______ ____
ROOT
ATOM      1  CG  LYS A   1      25.733  82.921  21.516  0.00  0.00    -0.000 C 
ENDROOT
BRANCH   1   2
ATOM      2  CB  LYS A   1      25.431  82.830  20.028  0.00  0.00    +0.025 C 
BRANCH   2   3
ATOM      3  CA  LYS A   1      25.306  84.163  19.293  0.00  0.00    +0.133 C 
BRANCH   3   4
ATOM      4  N   LYS A   1      24.912  83.918  17.910  0.00  0.00    -0.239 NA
ATOM      5  H   LYS A   1      24.797  82.937  17.584  0.00  0.00    +0.142 HD
ENDBRANCH   3   4
BRANCH   3   6
ATOM      6  C   LYS A   1      26.622  84.928  19.369  0.00  0.00    +0.224 C 
ATOM      7  O   LYS A   1      26.800  85.797  20.225  0.00  0.00    -0.287 OA
ENDBRANCH   3   6
ENDBRANCH   2   3
ENDBRANCH   1   2
BRANCH   1   8
ATOM      8  CD  LYS A   1      25.614  81.538  22.129  0.00  0.00    -0.024 C 
BRANCH   8   9
ATOM      9  CE  LYS A   1      26.030  81.510  23.581  0.00  0.00    -0.086 C 
BRANCH   9  10
ATOM     10  NZ  LYS A   1      26.093  80.099  24.057  0.00  0.00    +0.380 N 
ATOM     11  HZ1 LYS A   1      26.380  80.084  25.057  0.00  0.00    -0.089 HD
ATOM     12  HZ2 LYS A   1      25.156  79.659  23.957  0.00  0.00    -0.089 HD
ATOM     13  HZ3 LYS A   1      26.787  79.573  23.488  0.00  0.00    -0.089 HD
ENDBRANCH   9  10
ENDBRANCH   8   9
ENDBRANCH   1   8
TORSDOF 7
REMARK  Name = ../refined-set-2016/4jne/4jne_pocket.pdb
REMARK  259 active torsions:
REMARK  status: ('A' for Active; 'I' for Inactive)
REMARK    1  A    between atoms: _1  and  _3
REMARK    2  A    between atoms: _3  and  _4
REMARK    3  A    between atoms: _3  and  _6
REMARK    4  A    between atoms: _6  and  _7
REMARK    5  A    between atoms: _10  and  _12
REMARK    6  A    between atoms: _12  and  _13
REMARK    7  A    between atoms: _12  and  _15
REMARK    8  A    between atoms: _15  and  _16
REMARK    9  A    between atoms: _19  and  _21
REMARK   10  A    between atoms: _21  and  _22
REMARK   11  A    between atoms: _24  and  _26
REMARK   12  A    between atoms: _26  and  _27
REMARK   13  A    between atoms: _26  and  _29
REMARK   14  A    between atoms: _29  and  _30
REMARK   15  A    between atoms: _33  and  _35
REMARK   16  A    between atoms: _35  and  _36
REMARK   17  A    between atoms: _35  and  _38
REMARK   18  A    between atoms: _38  and  _39
REMARK   19  A    between atoms: _42  and  _44
REMARK   20  A    between atoms: _44  and  _45
REMARK   21  A    between atoms: _44  and  _47
REMARK   22  A    between atoms: _47  and  _48
REMARK   23  A    between atoms: _53  and  _55
REMARK   24  A    between atoms: _55  and  _56
REMARK   25  A    between atoms: _55  and  _58
REMARK   26  A    between atoms: _58  and  _59
REMARK   27  A    between atoms: _61  and  _63
REMARK   28  A    between atoms: _63  and  _64
REMARK   29  A    between atoms: _63  and  _66
REMARK   30  A    between atoms: _68  and  _70
REMARK   31  A    between atoms: _70  and  _71
REMARK   32  A    between atoms: _70  and  _73
REMARK   33  A    between atoms: _73  and  _74
REMARK   34  A    between atoms: _77  and  _79
REMARK   35  A    between atoms: _79  and  _80
REMARK   36  A    between atoms: _79  and  _82
REMARK   37  A    between atoms: _82  and  _83
REMARK   38  A    between atoms: _87  and  _88
REMARK   39  A    between atoms: _93  and  _95
REMARK   40  A    between atoms: _95  and  _96
REMARK   41  A    between atoms: _95  and  _98
REMARK   42  A    between atoms: _98  and  _99
REMARK   43  A    between atoms: _101  and  _103
REMARK   44  A    between atoms: _103  and  _104
REMARK   45  A    between atoms: _103  and  _106
REMARK   46  A    between atoms: _106  and  _107
REMARK   47  A    between atoms: _107  and  _108
REMARK   48  A    between atoms: _108  and  _109
REMARK   49  A    between atoms: _109  and  _110
REMARK   50  A    between atoms: _114  and  _116
REMARK   51  A    between atoms: _116  and  _117
REMARK   52  A    between atoms: _120  and  _122
REMARK   53  A    between atoms: _122  and  _123
REMARK   54  A    between atoms: _122  and  _125
REMARK   55  A    between atoms: _125  and  _126
REMARK   56  A    between atoms: _126  and  _127
REMARK   57  A    between atoms: _127  and  _128
REMARK   58  A    between atoms: _128  and  _129
REMARK   59  A    between atoms: _133  and  _135
REMARK   60  A    between atoms: _135  and  _136
REMARK   61  A    between atoms: _135  and  _138
REMARK   62  A    between atoms: _138  and  _139
REMARK   63  A    between atoms: _139  and  _140
REMARK   64  A    between atoms: _140  and  _141
REMARK   65  A    between atoms: _150  and  _152
REMARK   66  A    between atoms: _152  and  _153
REMARK   67  A    between atoms: _152  and  _155
REMARK   68  A    between atoms: _155  and  _156
REMARK   69  A    between atoms: _159  and  _161
REMARK   70  A    between atoms: _161  and  _162
REMARK   71  A    between atoms: _161  and  _164
REMARK   72  A    between atoms: _168  and  _169
REMARK   73  A    between atoms: _174  and  _176
REMARK   74  A    between atoms: _176  and  _177
REMARK   75  A    between atoms: _180  and  _182
REMARK   76  A    between atoms: _182  and  _183
REMARK   77  A    between atoms: _182  and  _185
REMARK   78  A    between atoms: _185  and  _186
REMARK   79  A    between atoms: _192  and  _194
REMARK   80  A    between atoms: _194  and  _195
REMARK   81  A    between atoms: _194  and  _197
REMARK   82  A    between atoms: _197  and  _198
REMARK   83  A    between atoms: _198  and  _199
REMARK   84  A    between atoms: _202  and  _204
REMARK   85  A    between atoms: _204  and  _205
REMARK   86  A    between atoms: _204  and  _207
REMARK   87  A    between atoms: _207  and  _208
REMARK   88  A    between atoms: _211  and  _213
REMARK   89  A    between atoms: _213  and  _214
REMARK   90  A    between atoms: _213  and  _216
REMARK   91  A    between atoms: _216  and  _217
REMARK   92  A    between atoms: _220  and  _222
REMARK   93  A    between atoms: _222  and  _223
REMARK   94  A    between atoms: _225  and  _227
REMARK   95  A    between atoms: _227  and  _228
REMARK   96  A    between atoms: _230  and  _232
REMARK   97  A    between atoms: _232  and  _233
REMARK   98  A    between atoms: _235  and  _237
REMARK   99  A    between atoms: _237  and  _238
REMARK  100  A    between atoms: _241  and  _243
REMARK  101  A    between atoms: _243  and  _244
REMARK  102  A    between atoms: _243  and  _246
REMARK  103  A    between atoms: _246  and  _247
REMARK  104  A    between atoms: _253  and  _255
REMARK  105  A    between atoms: _255  and  _256
REMARK  106  A    between atoms: _255  and  _258
REMARK  107  A    between atoms: _258  and  _259
REMARK  108  A    between atoms: _262  and  _264
REMARK  109  A    between atoms: _264  and  _265
REMARK  110  A    between atoms: _264  and  _267
REMARK  111  A    between atoms: _267  and  _268
REMARK  112  A    between atoms: _271  and  _273
REMARK  113  A    between atoms: _273  and  _274
REMARK  114  A    between atoms: _273  and  _276
REMARK  115  A    between atoms: _276  and  _277
REMARK  116  A    between atoms: _280  and  _282
REMARK  117  A    between atoms: _282  and  _283
REMARK  118  A    between atoms: _282  and  _285
REMARK  119  A    between atoms: _285  and  _286
REMARK  120  A    between atoms: _289  and  _291
REMARK  121  A    between atoms: _291  and  _292
REMARK  122  A    between atoms: _294  and  _296
REMARK  123  A    between atoms: _296  and  _297
REMARK  124  A    between atoms: _299  and  _301
REMARK  125  A    between atoms: _301  and  _302
REMARK  126  A    between atoms: _301  and  _304
REMARK  127  A    between atoms: _304  and  _305
REMARK  128  A    between atoms: _305  and  _306
REMARK  129  A    between atoms: _309  and  _311
REMARK  130  A    between atoms: _311  and  _312
REMARK  131  A    between atoms: _311  and  _314
REMARK  132  A    between atoms: _314  and  _315
REMARK  133  A    between atoms: _318  and  _320
REMARK  134  A    between atoms: _320  and  _321
REMARK  135  A    between atoms: _320  and  _323
REMARK  136  A    between atoms: _323  and  _324
REMARK  137  A    between atoms: _330  and  _332
REMARK  138  A    between atoms: _332  and  _333
REMARK  139  A    between atoms: _332  and  _335
REMARK  140  A    between atoms: _335  and  _336
REMARK  141  A    between atoms: _339  and  _341
REMARK  142  A    between atoms: _341  and  _342
REMARK  143  A    between atoms: _341  and  _344
REMARK  144  A    between atoms: _344  and  _345
REMARK  145  A    between atoms: _345  and  _346
REMARK  146  A    between atoms: _346  and  _347
REMARK  147  A    between atoms: _347  and  _348
REMARK  148  A    between atoms: _352  and  _354
REMARK  149  A    between atoms: _354  and  _355
REMARK  150  A    between atoms: _358  and  _360
REMARK  151  A    between atoms: _360  and  _361
REMARK  152  A    between atoms: _360  and  _363
REMARK  153  A    between atoms: _363  and  _364
REMARK  154  A    between atoms: _364  and  _365
REMARK  155  A    between atoms: _368  and  _370
REMARK  156  A    between atoms: _370  and  _371
REMARK  157  A    between atoms: _370  and  _373
REMARK  158  A    between atoms: _373  and  _374
REMARK  159  A    between atoms: _374  and  _375
REMARK  160  A    between atoms: _375  and  _376
REMARK  161  A    between atoms: _376  and  _377
REMARK  162  A    between atoms: _381  and  _383
REMARK  163  A    between atoms: _383  and  _384
REMARK  164  A    between atoms: _387  and  _389
REMARK  165  A    between atoms: _389  and  _390
REMARK  166  A    between atoms: _389  and  _392
REMARK  167  A    between atoms: _392  and  _393
REMARK  168  A    between atoms: _393  and  _394
REMARK  169  A    between atoms: _394  and  _395
REMARK  170  A    between atoms: _395  and  _396
REMARK  171  A    between atoms: _400  and  _402
REMARK  172  A    between atoms: _402  and  _403
REMARK  173  A    between atoms: _402  and  _405
REMARK  174  A    between atoms: _405  and  _406
REMARK  175  A    between atoms: _409  and  _411
REMARK  176  A    between atoms: _411  and  _412
REMARK  177  A    between atoms: _411  and  _414
REMARK  178  A    between atoms: _414  and  _415
REMARK  179  A    between atoms: _415  and  _416
REMARK  180  A    between atoms: _419  and  _421
REMARK  181  A    between atoms: _421  and  _422
REMARK  182  A    between atoms: _421  and  _424
REMARK  183  A    between atoms: _424  and  _425
REMARK  184  A    between atoms: _428  and  _430
REMARK  185  A    between atoms: _430  and  _431
REMARK  186  A    between atoms: _430  and  _433
REMARK  187  A    between atoms: _433  and  _434
REMARK  188  A    between atoms: _436  and  _438
REMARK  189  A    between atoms: _438  and  _439
REMARK  190  A    between atoms: _438  and  _441
REMARK  191  A    between atoms: _441  and  _442
REMARK  192  A    between atoms: _444  and  _446
REMARK  193  A    between atoms: _446  and  _447
REMARK  194  A    between atoms: _450  and  _452
REMARK  195  A    between atoms: _452  and  _453
REMARK  196  A    between atoms: _452  and  _455
REMARK  197  A    between atoms: _455  and  _456
REMARK  198  A    between atoms: _459  and  _461
REMARK  199  A    between atoms: _461  and  _462
REMARK  200  A    between atoms: _461  and  _464
REMARK  201  A    between atoms: _467  and  _469
REMARK  202  A    between atoms: _469  and  _470
REMARK  203  A    between atoms: _472  and  _474
REMARK  204  A    between atoms: _474  and  _475
REMARK  205  A    between atoms: _477  and  _479
REMARK  206  A    between atoms: _479  and  _480
REMARK  207  A    between atoms: _479  and  _482
REMARK  208  A    between atoms: _482  and  _483
REMARK  209  A    between atoms: _483  and  _484
REMARK  210  A    between atoms: _489  and  _491
REMARK  211  A    between atoms: _491  and  _492
REMARK  212  A    between atoms: _491  and  _494
REMARK  213  A    between atoms: _494  and  _495
REMARK  214  A    between atoms: _498  and  _500
REMARK  215  A    between atoms: _500  and  _501
REMARK  216  A    between atoms: _500  and  _503
REMARK  217  A    between atoms: _503  and  _504
REMARK  218  A    between atoms: _504  and  _505
REMARK  219  A    between atoms: _505  and  _506
REMARK  220  A    between atoms: _515  and  _517
REMARK  221  A    between atoms: _517  and  _518
REMARK  222  A    between atoms: _517  and  _520
REMARK  223  A    between atoms: _520  and  _521
REMARK  224  A    between atoms: _521  and  _522
REMARK  225  A    between atoms: _525  and  _526
REMARK  226  A    between atoms: _531  and  _533
REMARK  227  A    between atoms: _533  and  _534
REMARK  228  A    between atoms: _533  and  _536
REMARK  229  A    between atoms: _539  and  _541
REMARK  230  A    between atoms: _541  and  _542
REMARK  231  A    between atoms: _541  and  _544
REMARK  232  A    between atoms: _544  and  _545
REMARK  233  A    between atoms: _545  and  _546
REMARK  234  A    between atoms: _552  and  _553
REMARK  235  A    between atoms: _558  and  _560
REMARK  236  A    between atoms: _560  and  _561
REMARK  237  A    between atoms: _560  and  _563
REMARK  238  A    between atoms: _563  and  _564
REMARK  239  A    between atoms: _567  and  _569
REMARK  240  A    between atoms: _569  and  _570
REMARK  241  A    between atoms: _569  and  _572
REMARK  242  A    between atoms: _572  and  _573
REMARK  243  A    between atoms: _573  and  _574
REMARK  244  A    between atoms: _577  and  _579
REMARK  245  A    between atoms: _579  and  _580
REMARK  246  A    between atoms: _579  and  _582
REMARK  247  A    between atoms: _585  and  _587
REMARK  248  A    between atoms: _587  and  _588
REMARK  249  A    between atoms: _591  and  _593
REMARK  250  A    between atoms: _593  and  _594
REMARK  251  A    between atoms: _593  and  _596
REMARK  252  A    between atoms: _596  and  _597
REMARK  253  A    between atoms: _597  and  _598
REMARK  254  A    between atoms: _601  and  _603
REMARK  255  A    between atoms: _603  and  _604
REMARK  256  A    between atoms: _606  and  _608
REMARK  257  A    between atoms: _608  and  _609
REMARK  258  A    between atoms: _608  and  _611
REMARK  259  A    between atoms: _611  and  _612
REMARK                            x       y       z     vdW  Elec       q    Type
REMARK                         _______ _______ _______ _____ _____    ______ ____
ROOT
ATOM      1  CA  ALA A   1      14.346  84.266  24.032  0.00  0.00    +0.133 C 
ATOM      2  CB  ALA A   1      14.587  85.106  25.295  0.00  0.00    +0.027 C 
ENDROOT
BRANCH   1   3
ATOM      3  N   ALA A   1      15.450  84.441  23.078  0.00  0.00    -0.239 NA
ATOM      4  H   ALA A   1      16.101  83.648  22.907  0.00  0.00    +0.142 HD
ENDBRANCH   1   3
BRANCH   1   5
ATOM      5  C   ALA A   1      12.967  84.578  23.431  0.00  0.00    +0.224 C 
ATOM      6  O   ALA A   1      12.033  84.990  24.134  0.00  0.00    -0.287 OA
ENDBRANCH   1   5
TORSDOF 2
REMARK  Name = ../refined-set-2016/4jne/4jne_pocket.pdb
REMARK  259 active torsions:
REMARK  status: ('A' for Active; 'I' for Inactive)
REMARK    1  A    between atoms: _1  and  _3
REMARK    2  A    between atoms: _3  and  _4
REMARK    3  A    between atoms: _3  and  _6
REMARK    4  A    between atoms: _6  and  _7
REMARK    5  A    between atoms: _10  and  _12
REMARK    6  A    between atoms: _12  and  _13
REMARK    7  A    between atoms: _12  and  _15
REMARK    8  A    between atoms: _15  and  _16
REMARK    9  A    between atoms: _19  and  _21
REMARK   10  A    between atoms: _21  and  _22
REMARK   11  A    between atoms: _24  and  _26
REMARK   12  A    between atoms: _26  and  _27
REMARK   13  A    between atoms: _26  and  _29
REMARK   14  A    between atoms: _29  and  _30
REMARK   15  A    between atoms: _33  and  _35
REMARK   16  A    between atoms: _35  and  _36
REMARK   17  A    between atoms: _35  and  _38
REMARK   18  A    between atoms: _38  and  _39
REMARK   19  A    between atoms: _42  and  _44
REMARK   20  A    between atoms: _44  and  _45
REMARK   21  A    between atoms: _44  and  _47
REMARK   22  A    between atoms: _47  and  _48
REMARK   23  A    between atoms: _53  and  _55
REMARK   24  A    between atoms: _55  and  _56
REMARK   25  A    between atoms: _55  and  _58
REMARK   26  A    between atoms: _58  and  _59
REMARK   27  A    between atoms: _61  and  _63
REMARK   28  A    between atoms: _63  and  _64
REMARK   29  A    between atoms: _63  and  _66
REMARK   30  A    between atoms: _68  and  _70
REMARK   31  A    between atoms: _70  and  _71
REMARK   32  A    between atoms: _70  and  _73
REMARK   33  A    between atoms: _73  and  _74
REMARK   34  A    between atoms: _77  and  _79
REMARK   35  A    between atoms: _79  and  _80
REMARK   36  A    between atoms: _79  and  _82
REMARK   37  A    between atoms: _82  and  _83
REMARK   38  A    between atoms: _87  and  _88
REMARK   39  A    between atoms: _93  and  _95
REMARK   40  A    between atoms: _95  and  _96
REMARK   41  A    between atoms: _95  and  _98
REMARK   42  A    between atoms: _98  and  _99
REMARK   43  A    between atoms: _101  and  _103
REMARK   44  A    between atoms: _103  and  _104
REMARK   45  A    between atoms: _103  and  _106
REMARK   46  A    between atoms: _106  and  _107
REMARK   47  A    between atoms: _107  and  _108
REMARK   48  A    between atoms: _108  and  _109
REMARK   49  A    between atoms: _109  and  _110
REMARK   50  A    between atoms: _114  and  _116
REMARK   51  A    between atoms: _116  and  _117
REMARK   52  A    between atoms: _120  and  _122
REMARK   53  A    between atoms: _122  and  _123
REMARK   54  A    between atoms: _122  and  _125
REMARK   55  A    between atoms: _125  and  _126
REMARK   56  A    between atoms: _126  and  _127
REMARK   57  A    between atoms: _127  and  _128
REMARK   58  A    between atoms: _128  and  _129
REMARK   59  A    between atoms: _133  and  _135
REMARK   60  A    between atoms: _135  and  _136
REMARK   61  A    between atoms: _135  and  _138
REMARK   62  A    between atoms: _138  and  _139
REMARK   63  A    between atoms: _139  and  _140
REMARK   64  A    between atoms: _140  and  _141
REMARK   65  A    between atoms: _150  and  _152
REMARK   66  A    between atoms: _152  and  _153
REMARK   67  A    between atoms: _152  and  _155
REMARK   68  A    between atoms: _155  and  _156
REMARK   69  A    between atoms: _159  and  _161
REMARK   70  A    between atoms: _161  and  _162
REMARK   71  A    between atoms: _161  and  _164
REMARK   72  A    between atoms: _168  and  _169
REMARK   73  A    between atoms: _174  and  _176
REMARK   74  A    between atoms: _176  and  _177
REMARK   75  A    between atoms: _180  and  _182
REMARK   76  A    between atoms: _182  and  _183
REMARK   77  A    between atoms: _182  and  _185
REMARK   78  A    between atoms: _185  and  _186
REMARK   79  A    between atoms: _192  and  _194
REMARK   80  A    between atoms: _194  and  _195
REMARK   81  A    between atoms: _194  and  _197
REMARK   82  A    between atoms: _197  and  _198
REMARK   83  A    between atoms: _198  and  _199
REMARK   84  A    between atoms: _202  and  _204
REMARK   85  A    between atoms: _204  and  _205
REMARK   86  A    between atoms: _204  and  _207
REMARK   87  A    between atoms: _207  and  _208
REMARK   88  A    between atoms: _211  and  _213
REMARK   89  A    between atoms: _213  and  _214
REMARK   90  A    between atoms: _213  and  _216
REMARK   91  A    between atoms: _216  and  _217
REMARK   92  A    between atoms: _220  and  _222
REMARK   93  A    between atoms: _222  and  _223
REMARK   94  A    between atoms: _225  and  _227
REMARK   95  A    between atoms: _227  and  _228
REMARK   96  A    between atoms: _230  and  _232
REMARK   97  A    between atoms: _232  and  _233
REMARK   98  A    between atoms: _235  and  _237
REMARK   99  A    between atoms: _237  and  _238
REMARK  100  A    between atoms: _241  and  _243
REMARK  101  A    between atoms: _243  and  _244
REMARK  102  A    between atoms: _243  and  _246
REMARK  103  A    between atoms: _246  and  _247
REMARK  104  A    between atoms: _253  and  _255
REMARK  105  A    between atoms: _255  and  _256
REMARK  106  A    between atoms: _255  and  _258
REMARK  107  A    between atoms: _258  and  _259
REMARK  108  A    between atoms: _262  and  _264
REMARK  109  A    between atoms: _264  and  _265
REMARK  110  A    between atoms: _264  and  _267
REMARK  111  A    between atoms: _267  and  _268
REMARK  112  A    between atoms: _271  and  _273
REMARK  113  A    between atoms: _273  and  _274
REMARK  114  A    between atoms: _273  and  _276
REMARK  115  A    between atoms: _276  and  _277
REMARK  116  A    between atoms: _280  and  _282
REMARK  117  A    between atoms: _282  and  _283
REMARK  118  A    between atoms: _282  and  _285
REMARK  119  A    between atoms: _285  and  _286
REMARK  120  A    between atoms: _289  and  _291
REMARK  121  A    between atoms: _291  and  _292
REMARK  122  A    between atoms: _294  and  _296
REMARK  123  A    between atoms: _296  and  _297
REMARK  124  A    between atoms: _299  and  _301
REMARK  125  A    between atoms: _301  and  _302
REMARK  126  A    between atoms: _301  and  _304
REMARK  127  A    between atoms: _304  and  _305
REMARK  128  A    between atoms: _305  and  _306
REMARK  129  A    between atoms: _309  and  _311
REMARK  130  A    between atoms: _311  and  _312
REMARK  131  A    between atoms: _311  and  _314
REMARK  132  A    between atoms: _314  and  _315
REMARK  133  A    between atoms: _318  and  _320
REMARK  134  A    between atoms: _320  and  _321
REMARK  135  A    between atoms: _320  and  _323
REMARK  136  A    between atoms: _323  and  _324
REMARK  137  A    between atoms: _330  and  _332
REMARK  138  A    between atoms: _332  and  _333
REMARK  139  A    between atoms: _332  and  _335
REMARK  140  A    between atoms: _335  and  _336
REMARK  141  A    between atoms: _339  and  _341
REMARK  142  A    between atoms: _341  and  _342
REMARK  143  A    between atoms: _341  and  _344
REMARK  144  A    between atoms: _344  and  _345
REMARK  145  A    between atoms: _345  and  _346
REMARK  146  A    between atoms: _346  and  _347
REMARK  147  A    between atoms: _347  and  _348
REMARK  148  A    between atoms: _352  and  _354
REMARK  149  A    between atoms: _354  and  _355
REMARK  150  A    between atoms: _358  and  _360
REMARK  151  A    between atoms: _360  and  _361
REMARK  152  A    between atoms: _360  and  _363
REMARK  153  A    between atoms: _363  and  _364
REMARK  154  A    between atoms: _364  and  _365
REMARK  155  A    between atoms: _368  and  _370
REMARK  156  A    between atoms: _370  and  _371
REMARK  157  A    between atoms: _370  and  _373
REMARK  158  A    between atoms: _373  and  _374
REMARK  159  A    between atoms: _374  and  _375
REMARK  160  A    between atoms: _375  and  _376
REMARK  161  A    between atoms: _376  and  _377
REMARK  162  A    between atoms: _381  and  _383
REMARK  163  A    between atoms: _383  and  _384
REMARK  164  A    between atoms: _387  and  _389
REMARK  165  A    between atoms: _389  and  _390
REMARK  166  A    between atoms: _389  and  _392
REMARK  167  A    between atoms: _392  and  _393
REMARK  168  A    between atoms: _393  and  _394
REMARK  169  A    between atoms: _394  and  _395
REMARK  170  A    between atoms: _395  and  _396
REMARK  171  A    between atoms: _400  and  _402
REMARK  172  A    between atoms: _402  and  _403
REMARK  173  A    between atoms: _402  and  _405
REMARK  174  A    between atoms: _405  and  _406
REMARK  175  A    between atoms: _409  and  _411
REMARK  176  A    between atoms: _411  and  _412
REMARK  177  A    between atoms: _411  and  _414
REMARK  178  A    between atoms: _414  and  _415
REMARK  179  A    between atoms: _415  and  _416
REMARK  180  A    between atoms: _419  and  _421
REMARK  181  A    between atoms: _421  and  _422
REMARK  182  A    between atoms: _421  and  _424
REMARK  183  A    between atoms: _424  and  _425
REMARK  184  A    between atoms: _428  and  _430
REMARK  185  A    between atoms: _430  and  _431
REMARK  186  A    between atoms: _430  and  _433
REMARK  187  A    between atoms: _433  and  _434
REMARK  188  A    between atoms: _436  and  _438
REMARK  189  A    between atoms: _438  and  _439
REMARK  190  A    between atoms: _438  and  _441
REMARK  191  A    between atoms: _441  and  _442
REMARK  192  A    between atoms: _444  and  _446
REMARK  193  A    between atoms: _446  and  _447
REMARK  194  A    between atoms: _450  and  _452
REMARK  195  A    between atoms: _452  and  _453
REMARK  196  A    between atoms: _452  and  _455
REMARK  197  A    between atoms: _455  and  _456
REMARK  198  A    between atoms: _459  and  _461
REMARK  199  A    between atoms: _461  and  _462
REMARK  200  A    between atoms: _461  and  _464
REMARK  201  A    between atoms: _467  and  _469
REMARK  202  A    between atoms: _469  and  _470
REMARK  203  A    between atoms: _472  and  _474
REMARK  204  A    between atoms: _474  and  _475
REMARK  205  A    between atoms: _477  and  _479
REMARK  206  A    between atoms: _479  and  _480
REMARK  207  A    between atoms: _479  and  _482
REMARK  208  A    between atoms: _482  and  _483
REMARK  209  A    between atoms: _483  and  _484
REMARK  210  A    between atoms: _489  and  _491
REMARK  211  A    between atoms: _491  and  _492
REMARK  212  A    between atoms: _491  and  _494
REMARK  213  A    between atoms: _494  and  _495
REMARK  214  A    between atoms: _498  and  _500
REMARK  215  A    between atoms: _500  and  _501
REMARK  216  A    between atoms: _500  and  _503
REMARK  217  A    between atoms: _503  and  _504
REMARK  218  A    between atoms: _504  and  _505
REMARK  219  A    between atoms: _505  and  _506
REMARK  220  A    between atoms: _515  and  _517
REMARK  221  A    between atoms: _517  and  _518
REMARK  222  A    between atoms: _517  and  _520
REMARK  223  A    between atoms: _520  and  _521
REMARK  224  A    between atoms: _521  and  _522
REMARK  225  A    between atoms: _525  and  _526
REMARK  226  A    between atoms: _531  and  _533
REMARK  227  A    between atoms: _533  and  _534
REMARK  228  A    between atoms: _533  and  _536
REMARK  229  A    between atoms: _539  and  _541
REMARK  230  A    between atoms: _541  and  _542
REMARK  231  A    between atoms: _541  and  _544
REMARK  232  A    between atoms: _544  and  _545
REMARK  233  A    between atoms: _545  and  _546
REMARK  234  A    between atoms: _552  and  _553
REMARK  235  A    between atoms: _558  and  _560
REMARK  236  A    between atoms: _560  and  _561
REMARK  237  A    between atoms: _560  and  _563
REMARK  238  A    between atoms: _563  and  _564
REMARK  239  A    between atoms: _567  and  _569
REMARK  240  A    between atoms: _569  and  _570
REMARK  241  A    between atoms: _569  and  _572
REMARK  242  A    between atoms: _572  and  _573
REMARK  243  A    between atoms: _573  and  _574
REMARK  244  A    between atoms: _577  and  _579
REMARK  245  A    between atoms: _579  and  _580
REMARK  246  A    between atoms: _579  and  _582
REMARK  247  A    between atoms: _585  and  _587
REMARK  248  A    between atoms: _587  and  _588
REMARK  249  A    between atoms: _591  and  _593
REMARK  250  A    between atoms: _593  and  _594
REMARK  251  A    between atoms: _593  and  _596
REMARK  252  A    between atoms: _596  and  _597
REMARK  253  A    between atoms: _597  and  _598
REMARK  254  A    between atoms: _601  and  _603
REMARK  255  A    between atoms: _603  and  _604
REMARK  256  A    between atoms: _606  and  _608
REMARK  257  A    between atoms: _608  and  _609
REMARK  258  A    between atoms: _608  and  _611
REMARK  259  A    between atoms: _611  and  _612
REMARK                            x       y       z     vdW  Elec       q    Type
REMARK                         _______ _______ _______ _____ _____    ______ ____
ROOT
ATOM      1  C   LYS A   1       9.134  82.311  24.333  0.00  0.00    +0.238 C 
ATOM      2  N   ARG A   2       9.672  83.416  24.837  0.00  0.00    -0.298 N 
ATOM      3  H   ARG A   2      10.559  83.781  24.436  0.00  0.00    +0.150 HD
ATOM      4  O   LYS A   1       8.105  81.817  24.784  0.00  0.00    -0.274 OA
ENDROOT
BRANCH   1   5
ATOM      5  CA  LYS A   1       9.867  81.668  23.153  0.00  0.00    +0.145 C 
BRANCH   5   6
ATOM      6  N   LYS A   1      10.831  82.597  22.557  0.00  0.00    -0.238 NA
ATOM      7  H   LYS A   1      11.843  82.361  22.584  0.00  0.00    +0.142 HD
ENDBRANCH   5   6
BRANCH   5   8
ATOM      8  CB  LYS A   1      10.585  80.398  23.607  0.00  0.00    +0.026 C 
BRANCH   8   9
ATOM      9  CG  LYS A   1       9.678  79.265  24.097  0.00  0.00    -0.000 C 
BRANCH   9  10
ATOM     10  CD  LYS A   1      10.504  77.996  24.365  0.00  0.00    -0.024 C 
BRANCH  10  11
ATOM     11  CE  LYS A   1       9.639  76.844  24.891  0.00  0.00    -0.086 C 
BRANCH  11  12
ATOM     12  NZ  LYS A   1      10.453  75.619  25.195  0.00  0.00    +0.380 N 
ATOM     13  HZ1 LYS A   1      11.164  75.848  25.919  0.00  0.00    -0.089 HD
ATOM     14  HZ2 LYS A   1       9.827  74.867  25.547  0.00  0.00    -0.089 HD
ATOM     15  HZ3 LYS A   1      10.930  75.297  24.329  0.00  0.00    -0.089 HD
ENDBRANCH  11  12
ENDBRANCH  10  11
ENDBRANCH   9  10
ENDBRANCH   8   9
ENDBRANCH   5   8
ENDBRANCH   1   5
BRANCH   2  16
ATOM     16  CA  ARG A   2       9.039  84.126  25.944  0.00  0.00    +0.137 C 
BRANCH  16  17
ATOM     17  C   ARG A   2       8.031  85.149  25.424  0.00  0.00    +0.227 C 
ATOM     18  O   ARG A   2       7.312  85.784  26.201  0.00  0.00    -0.286 OA
ENDBRANCH  16  17
BRANCH  16  19
ATOM     19  CB  ARG A   2      10.104  84.803  26.810  0.00  0.00    +0.031 C 
BRANCH  19  20
ATOM     20  CG  ARG A   2      11.068  83.813  27.447  0.00  0.00    +0.045 C 
BRANCH  20  21
ATOM     21  CD  ARG A   2      10.798  83.662  28.937  0.00  0.00    +0.174 C 
BRANCH  21  22
ATOM     22  NE  ARG A   2      11.313  84.809  29.672  0.00  0.00    -0.265 N 
ATOM     23  CZ  ARG A   2      11.514  84.841  30.987  0.00  0.00    +0.342 C 
ATOM     24  NH2 ARG A   2      11.238  83.784  31.744  0.00  0.00    -0.292 N 
ATOM     25 HH21 ARG A   2      11.400  83.823  32.771  0.00  0.00    +0.255 HD
ATOM     26 HH22 ARG A   2      10.860  82.918  31.310  0.00  0.00    +0.255 HD
ATOM     27  NH1 ARG A   2      11.999  85.937  31.544  0.00  0.00    -0.292 N 
ATOM     28 HH11 ARG A   2      12.159  85.971  32.571  0.00  0.00    +0.255 HD
ATOM     29 HH12 ARG A   2      12.220  86.765  30.955  0.00  0.00    +0.255 HD
ATOM     30  HE  ARG A   2      11.540  85.666  29.129  0.00  0.00    +0.259 HD
ENDBRANCH  21  22
ENDBRANCH  20  21
ENDBRANCH  19  20
ENDBRANCH  16  19
ENDBRANCH   2  16
TORSDOF 13
REMARK  Name = ../refined-set-2016/4jne/4jne_pocket.pdb
REMARK  259 active torsions:
REMARK  status: ('A' for Active; 'I' for Inactive)
REMARK    1  A    between atoms: _1  and  _3
REMARK    2  A    between atoms: _3  and  _4
REMARK    3  A    between atoms: _3  and  _6
REMARK    4  A    between atoms: _6  and  _7
REMARK    5  A    between atoms: _10  and  _12
REMARK    6  A    between atoms: _12  and  _13
REMARK    7  A    between atoms: _12  and  _15
REMARK    8  A    between atoms: _15  and  _16
REMARK    9  A    between atoms: _19  and  _21
REMARK   10  A    between atoms: _21  and  _22
REMARK   11  A    between atoms: _24  and  _26
REMARK   12  A    between atoms: _26  and  _27
REMARK   13  A    between atoms: _26  and  _29
REMARK   14  A    between atoms: _29  and  _30
REMARK   15  A    between atoms: _33  and  _35
REMARK   16  A    between atoms: _35  and  _36
REMARK   17  A    between atoms: _35  and  _38
REMARK   18  A    between atoms: _38  and  _39
REMARK   19  A    between atoms: _42  and  _44
REMARK   20  A    between atoms: _44  and  _45
REMARK   21  A    between atoms: _44  and  _47
REMARK   22  A    between atoms: _47  and  _48
REMARK   23  A    between atoms: _53  and  _55
REMARK   24  A    between atoms: _55  and  _56
REMARK   25  A    between atoms: _55  and  _58
REMARK   26  A    between atoms: _58  and  _59
REMARK   27  A    between atoms: _61  and  _63
REMARK   28  A    between atoms: _63  and  _64
REMARK   29  A    between atoms: _63  and  _66
REMARK   30  A    between atoms: _68  and  _70
REMARK   31  A    between atoms: _70  and  _71
REMARK   32  A    between atoms: _70  and  _73
REMARK   33  A    between atoms: _73  and  _74
REMARK   34  A    between atoms: _77  and  _79
REMARK   35  A    between atoms: _79  and  _80
REMARK   36  A    between atoms: _79  and  _82
REMARK   37  A    between atoms: _82  and  _83
REMARK   38  A    between atoms: _87  and  _88
REMARK   39  A    between atoms: _93  and  _95
REMARK   40  A    between atoms: _95  and  _96
REMARK   41  A    between atoms: _95  and  _98
REMARK   42  A    between atoms: _98  and  _99
REMARK   43  A    between atoms: _101  and  _103
REMARK   44  A    between atoms: _103  and  _104
REMARK   45  A    between atoms: _103  and  _106
REMARK   46  A    between atoms: _106  and  _107
REMARK   47  A    between atoms: _107  and  _108
REMARK   48  A    between atoms: _108  and  _109
REMARK   49  A    between atoms: _109  and  _110
REMARK   50  A    between atoms: _114  and  _116
REMARK   51  A    between atoms: _116  and  _117
REMARK   52  A    between atoms: _120  and  _122
REMARK   53  A    between atoms: _122  and  _123
REMARK   54  A    between atoms: _122  and  _125
REMARK   55  A    between atoms: _125  and  _126
REMARK   56  A    between atoms: _126  and  _127
REMARK   57  A    between atoms: _127  and  _128
REMARK   58  A    between atoms: _128  and  _129
REMARK   59  A    between atoms: _133  and  _135
REMARK   60  A    between atoms: _135  and  _136
REMARK   61  A    between atoms: _135  and  _138
REMARK   62  A    between atoms: _138  and  _139
REMARK   63  A    between atoms: _139  and  _140
REMARK   64  A    between atoms: _140  and  _141
REMARK   65  A    between atoms: _150  and  _152
REMARK   66  A    between atoms: _152  and  _153
REMARK   67  A    between atoms: _152  and  _155
REMARK   68  A    between atoms: _155  and  _156
REMARK   69  A    between atoms: _159  and  _161
REMARK   70  A    between atoms: _161  and  _162
REMARK   71  A    between atoms: _161  and  _164
REMARK   72  A    between atoms: _168  and  _169
REMARK   73  A    between atoms: _174  and  _176
REMARK   74  A    between atoms: _176  and  _177
REMARK   75  A    between atoms: _180  and  _182
REMARK   76  A    between atoms: _182  and  _183
REMARK   77  A    between atoms: _182  and  _185
REMARK   78  A    between atoms: _185  and  _186
REMARK   79  A    between atoms: _192  and  _194
REMARK   80  A    between atoms: _194  and  _195
REMARK   81  A    between atoms: _194  and  _197
REMARK   82  A    between atoms: _197  and  _198
REMARK   83  A    between atoms: _198  and  _199
REMARK   84  A    between atoms: _202  and  _204
REMARK   85  A    between atoms: _204  and  _205
REMARK   86  A    between atoms: _204  and  _207
REMARK   87  A    between atoms: _207  and  _208
REMARK   88  A    between atoms: _211  and  _213
REMARK   89  A    between atoms: _213  and  _214
REMARK   90  A    between atoms: _213  and  _216
REMARK   91  A    between atoms: _216  and  _217
REMARK   92  A    between atoms: _220  and  _222
REMARK   93  A    between atoms: _222  and  _223
REMARK   94  A    between atoms: _225  and  _227
REMARK   95  A    between atoms: _227  and  _228
REMARK   96  A    between atoms: _230  and  _232
REMARK   97  A    between atoms: _232  and  _233
REMARK   98  A    between atoms: _235  and  _237
REMARK   99  A    between atoms: _237  and  _238
REMARK  100  A    between atoms: _241  and  _243
REMARK  101  A    between atoms: _243  and  _244
REMARK  102  A    between atoms: _243  and  _246
REMARK  103  A    between atoms: _246  and  _247
REMARK  104  A    between atoms: _253  and  _255
REMARK  105  A    between atoms: _255  and  _256
REMARK  106  A    between atoms: _255  and  _258
REMARK  107  A    between atoms: _258  and  _259
REMARK  108  A    between atoms: _262  and  _264
REMARK  109  A    between atoms: _264  and  _265
REMARK  110  A    between atoms: _264  and  _267
REMARK  111  A    between atoms: _267  and  _268
REMARK  112  A    between atoms: _271  and  _273
REMARK  113  A    between atoms: _273  and  _274
REMARK  114  A    between atoms: _273  and  _276
REMARK  115  A    between atoms: _276  and  _277
REMARK  116  A    between atoms: _280  and  _282
REMARK  117  A    between atoms: _282  and  _283
REMARK  118  A    between atoms: _282  and  _285
REMARK  119  A    between atoms: _285  and  _286
REMARK  120  A    between atoms: _289  and  _291
REMARK  121  A    between atoms: _291  and  _292
REMARK  122  A    between atoms: _294  and  _296
REMARK  123  A    between atoms: _296  and  _297
REMARK  124  A    between atoms: _299  and  _301
REMARK  125  A    between atoms: _301  and  _302
REMARK  126  A    between atoms: _301  and  _304
REMARK  127  A    between atoms: _304  and  _305
REMARK  128  A    between atoms: _305  and  _306
REMARK  129  A    between atoms: _309  and  _311
REMARK  130  A    between atoms: _311  and  _312
REMARK  131  A    between atoms: _311  and  _314
REMARK  132  A    between atoms: _314  and  _315
REMARK  133  A    between atoms: _318  and  _320
REMARK  134  A    between atoms: _320  and  _321
REMARK  135  A    between atoms: _320  and  _323
REMARK  136  A    between atoms: _323  and  _324
REMARK  137  A    between atoms: _330  and  _332
REMARK  138  A    between atoms: _332  and  _333
REMARK  139  A    between atoms: _332  and  _335
REMARK  140  A    between atoms: _335  and  _336
REMARK  141  A    between atoms: _339  and  _341
REMARK  142  A    between atoms: _341  and  _342
REMARK  143  A    between atoms: _341  and  _344
REMARK  144  A    between atoms: _344  and  _345
REMARK  145  A    between atoms: _345  and  _346
REMARK  146  A    between atoms: _346  and  _347
REMARK  147  A    between atoms: _347  and  _348
REMARK  148  A    between atoms: _352  and  _354
REMARK  149  A    between atoms: _354  and  _355
REMARK  150  A    between atoms: _358  and  _360
REMARK  151  A    between atoms: _360  and  _361
REMARK  152  A    between atoms: _360  and  _363
REMARK  153  A    between atoms: _363  and  _364
REMARK  154  A    between atoms: _364  and  _365
REMARK  155  A    between atoms: _368  and  _370
REMARK  156  A    between atoms: _370  and  _371
REMARK  157  A    between atoms: _370  and  _373
REMARK  158  A    between atoms: _373  and  _374
REMARK  159  A    between atoms: _374  and  _375
REMARK  160  A    between atoms: _375  and  _376
REMARK  161  A    between atoms: _376  and  _377
REMARK  162  A    between atoms: _381  and  _383
REMARK  163  A    between atoms: _383  and  _384
REMARK  164  A    between atoms: _387  and  _389
REMARK  165  A    between atoms: _389  and  _390
REMARK  166  A    between atoms: _389  and  _392
REMARK  167  A    between atoms: _392  and  _393
REMARK  168  A    between atoms: _393  and  _394
REMARK  169  A    between atoms: _394  and  _395
REMARK  170  A    between atoms: _395  and  _396
REMARK  171  A    between atoms: _400  and  _402
REMARK  172  A    between atoms: _402  and  _403
REMARK  173  A    between atoms: _402  and  _405
REMARK  174  A    between atoms: _405  and  _406
REMARK  175  A    between atoms: _409  and  _411
REMARK  176  A    between atoms: _411  and  _412
REMARK  177  A    between atoms: _411  and  _414
REMARK  178  A    between atoms: _414  and  _415
REMARK  179  A    between atoms: _415  and  _416
REMARK  180  A    between atoms: _419  and  _421
REMARK  181  A    between atoms: _421  and  _422
REMARK  182  A    between atoms: _421  and  _424
REMARK  183  A    between atoms: _424  and  _425
REMARK  184  A    between atoms: _428  and  _430
REMARK  185  A    between atoms: _430  and  _431
REMARK  186  A    between atoms: _430  and  _433
REMARK  187  A    between atoms: _433  and  _434
REMARK  188  A    between atoms: _436  and  _438
REMARK  189  A    between atoms: _438  and  _439
REMARK  190  A    between atoms: _438  and  _441
REMARK  191  A    between atoms: _441  and  _442
REMARK  192  A    between atoms: _444  and  _446
REMARK  193  A    between atoms: _446  and  _447
REMARK  194  A    between atoms: _450  and  _452
REMARK  195  A    between atoms: _452  and  _453
REMARK  196  A    between atoms: _452  and  _455
REMARK  197  A    between atoms: _455  and  _456
REMARK  198  A    between atoms: _459  and  _461
REMARK  199  A    between atoms: _461  and  _462
REMARK  200  A    between atoms: _461  and  _464
REMARK  201  A    between atoms: _467  and  _469
REMARK  202  A    between atoms: _469  and  _470
REMARK  203  A    between atoms: _472  and  _474
REMARK  204  A    between atoms: _474  and  _475
REMARK  205  A    between atoms: _477  and  _479
REMARK  206  A    between atoms: _479  and  _480
REMARK  207  A    between atoms: _479  and  _482
REMARK  208  A    between atoms: _482  and  _483
REMARK  209  A    between atoms: _483  and  _484
REMARK  210  A    between atoms: _489  and  _491
REMARK  211  A    between atoms: _491  and  _492
REMARK  212  A    between atoms: _491  and  _494
REMARK  213  A    between atoms: _494  and  _495
REMARK  214  A    between atoms: _498  and  _500
REMARK  215  A    between atoms: _500  and  _501
REMARK  216  A    between atoms: _500  and  _503
REMARK  217  A    between atoms: _503  and  _504
REMARK  218  A    between atoms: _504  and  _505
REMARK  219  A    between atoms: _505  and  _506
REMARK  220  A    between atoms: _515  and  _517
REMARK  221  A    between atoms: _517  and  _518
REMARK  222  A    between atoms: _517  and  _520
REMARK  223  A    between atoms: _520  and  _521
REMARK  224  A    between atoms: _521  and  _522
REMARK  225  A    between atoms: _525  and  _526
REMARK  226  A    between atoms: _531  and  _533
REMARK  227  A    between atoms: _533  and  _534
REMARK  228  A    between atoms: _533  and  _536
REMARK  229  A    between atoms: _539  and  _541
REMARK  230  A    between atoms: _541  and  _542
REMARK  231  A    between atoms: _541  and  _544
REMARK  232  A    between atoms: _544  and  _545
REMARK  233  A    between atoms: _545  and  _546
REMARK  234  A    between atoms: _552  and  _553
REMARK  235  A    between atoms: _558  and  _560
REMARK  236  A    between atoms: _560  and  _561
REMARK  237  A    between atoms: _560  and  _563
REMARK  238  A    between atoms: _563  and  _564
REMARK  239  A    between atoms: _567  and  _569
REMARK  240  A    between atoms: _569  and  _570
REMARK  241  A    between atoms: _569  and  _572
REMARK  242  A    between atoms: _572  and  _573
REMARK  243  A    between atoms: _573  and  _574
REMARK  244  A    between atoms: _577  and  _579
REMARK  245  A    between atoms: _579  and  _580
REMARK  246  A    between atoms: _579  and  _582
REMARK  247  A    between atoms: _585  and  _587
REMARK  248  A    between atoms: _587  and  _588
REMARK  249  A    between atoms: _591  and  _593
REMARK  250  A    between atoms: _593  and  _594
REMARK  251  A    between atoms: _593  and  _596
REMARK  252  A    between atoms: _596  and  _597
REMARK  253  A    between atoms: _597  and  _598
REMARK  254  A    between atoms: _601  and  _603
REMARK  255  A    between atoms: _603  and  _604
REMARK  256  A    between atoms: _606  and  _608
REMARK  257  A    between atoms: _608  and  _609
REMARK  258  A    between atoms: _608  and  _611
REMARK  259  A    between atoms: _611  and  _612
REMARK                            x       y       z     vdW  Elec       q    Type
REMARK                         _______ _______ _______ _____ _____    ______ ____
ROOT
ATOM      1  CA  VAL A   2       6.340  72.983  24.269  0.00  0.00    +0.149 C 
ENDROOT
BRANCH   1   2
ATOM      2  C   VAL A   2       6.310  72.740  25.771  0.00  0.00    +0.244 C 
ATOM      3  N   PRO A   3       6.517  73.801  26.565  0.00  0.00    -0.272 N 
ATOM      4  CA  PRO A   3       6.338  73.634  28.012  0.00  0.00    +0.152 C 
ATOM      5  CB  PRO A   3       6.469  75.061  28.547  0.00  0.00    +0.031 C 
ATOM      6  CG  PRO A   3       7.404  75.740  27.567  0.00  0.00    +0.024 C 
ATOM      7  CD  PRO A   3       7.008  75.148  26.213  0.00  0.00    +0.094 C 
ATOM      8  O   VAL A   2       6.099  71.608  26.211  0.00  0.00    -0.273 OA
BRANCH   4   9
ATOM      9  C   PRO A   3       4.952  73.069  28.317  0.00  0.00    +0.241 C 
ATOM     10  N   ALA A   4       4.875  72.177  29.298  0.00  0.00    -0.298 N 
ATOM     11  H   ALA A   4       5.747  71.884  29.784  0.00  0.00    +0.150 HD
ATOM     12  O   PRO A   3       3.974  73.431  27.661  0.00  0.00    -0.273 OA
BRANCH  10  13
ATOM     13  CA  ALA A   4       3.603  71.596  29.714  0.00  0.00    +0.137 C 
ATOM     14  CB  ALA A   4       3.808  70.673  30.921  0.00  0.00    +0.030 C 
BRANCH  13  15
ATOM     15  C   ALA A   4       2.569  72.673  30.044  0.00  0.00    +0.227 C 
ATOM     16  O   ALA A   4       1.379  72.504  29.780  0.00  0.00    -0.286 OA
ENDBRANCH  13  15
ENDBRANCH  10  13
ENDBRANCH   4   9
ENDBRANCH   1   2
BRANCH   1  18
ATOM     17  C   THR A   1       7.513  71.694  22.535  0.00  0.00    +0.241 C 
ATOM     18  N   VAL A   2       6.732  71.738  23.613  0.00  0.00    -0.297 N 
ATOM     19  H   VAL A   2       6.384  70.841  24.008  0.00  0.00    +0.150 HD
ATOM     20  O   THR A   1       7.800  72.683  21.863  0.00  0.00    -0.274 OA
BRANCH  17  21
ATOM     21  CA  THR A   1       8.029  70.315  22.144  0.00  0.00    +0.172 C 
BRANCH  21  22
ATOM     22  N   THR A   1       8.364  70.247  20.725  0.00  0.00    -0.236 NA
ATOM     23  H   THR A   1       9.322  70.505  20.414  0.00  0.00    +0.142 HD
ENDBRANCH  21  22
BRANCH  21  24
ATOM     24  CB  THR A   1       9.249  69.973  23.022  0.00  0.00    +0.135 C 
ATOM     25  CG2 THR A   1       9.923  68.708  22.514  0.00  0.00    +0.034 C 
BRANCH  24  26
ATOM     26  OG1 THR A   1      10.190  71.058  22.989  0.00  0.00    -0.383 OA
ATOM     27  HG1 THR A   1       9.757  71.879  23.333  0.00  0.00    +0.210 HD
ENDBRANCH  24  26
ENDBRANCH  21  24
ENDBRANCH  17  21
ENDBRANCH   1  18
BRANCH   1  28
ATOM     28  CB  VAL A   2       4.927  73.458  23.874  0.00  0.00    +0.027 C 
ATOM     29  CG2 VAL A   2       3.872  72.401  24.243  0.00  0.00    +0.002 C 
ATOM     30  CG1 VAL A   2       4.860  73.816  22.388  0.00  0.00    +0.002 C 
ENDBRANCH   1  28
TORSDOF 10
REMARK  Name = ../refined-set-2016/4jne/4jne_pocket.pdb
REMARK  259 active torsions:
REMARK  status: ('A' for Active; 'I' for Inactive)
REMARK    1  A    between atoms: _1  and  _3
REMARK    2  A    between atoms: _3  and  _4
REMARK    3  A    between atoms: _3  and  _6
REMARK    4  A    between atoms: _6  and  _7
REMARK    5  A    between atoms: _10  and  _12
REMARK    6  A    between atoms: _12  and  _13
REMARK    7  A    between atoms: _12  and  _15
REMARK    8  A    between atoms: _15  and  _16
REMARK    9  A    between atoms: _19  and  _21
REMARK   10  A    between atoms: _21  and  _22
REMARK   11  A    between atoms: _24  and  _26
REMARK   12  A    between atoms: _26  and  _27
REMARK   13  A    between atoms: _26  and  _29
REMARK   14  A    between atoms: _29  and  _30
REMARK   15  A    between atoms: _33  and  _35
REMARK   16  A    between atoms: _35  and  _36
REMARK   17  A    between atoms: _35  and  _38
REMARK   18  A    between atoms: _38  and  _39
REMARK   19  A    between atoms: _42  and  _44
REMARK   20  A    between atoms: _44  and  _45
REMARK   21  A    between atoms: _44  and  _47
REMARK   22  A    between atoms: _47  and  _48
REMARK   23  A    between atoms: _53  and  _55
REMARK   24  A    between atoms: _55  and  _56
REMARK   25  A    between atoms: _55  and  _58
REMARK   26  A    between atoms: _58  and  _59
REMARK   27  A    between atoms: _61  and  _63
REMARK   28  A    between atoms: _63  and  _64
REMARK   29  A    between atoms: _63  and  _66
REMARK   30  A    between atoms: _68  and  _70
REMARK   31  A    between atoms: _70  and  _71
REMARK   32  A    between atoms: _70  and  _73
REMARK   33  A    between atoms: _73  and  _74
REMARK   34  A    between atoms: _77  and  _79
REMARK   35  A    between atoms: _79  and  _80
REMARK   36  A    between atoms: _79  and  _82
REMARK   37  A    between atoms: _82  and  _83
REMARK   38  A    between atoms: _87  and  _88
REMARK   39  A    between atoms: _93  and  _95
REMARK   40  A    between atoms: _95  and  _96
REMARK   41  A    between atoms: _95  and  _98
REMARK   42  A    between atoms: _98  and  _99
REMARK   43  A    between atoms: _101  and  _103
REMARK   44  A    between atoms: _103  and  _104
REMARK   45  A    between atoms: _103  and  _106
REMARK   46  A    between atoms: _106  and  _107
REMARK   47  A    between atoms: _107  and  _108
REMARK   48  A    between atoms: _108  and  _109
REMARK   49  A    between atoms: _109  and  _110
REMARK   50  A    between atoms: _114  and  _116
REMARK   51  A    between atoms: _116  and  _117
REMARK   52  A    between atoms: _120  and  _122
REMARK   53  A    between atoms: _122  and  _123
REMARK   54  A    between atoms: _122  and  _125
REMARK   55  A    between atoms: _125  and  _126
REMARK   56  A    between atoms: _126  and  _127
REMARK   57  A    between atoms: _127  and  _128
REMARK   58  A    between atoms: _128  and  _129
REMARK   59  A    between atoms: _133  and  _135
REMARK   60  A    between atoms: _135  and  _136
REMARK   61  A    between atoms: _135  and  _138
REMARK   62  A    between atoms: _138  and  _139
REMARK   63  A    between atoms: _139  and  _140
REMARK   64  A    between atoms: _140  and  _141
REMARK   65  A    between atoms: _150  and  _152
REMARK   66  A    between atoms: _152  and  _153
REMARK   67  A    between atoms: _152  and  _155
REMARK   68  A    between atoms: _155  and  _156
REMARK   69  A    between atoms: _159  and  _161
REMARK   70  A    between atoms: _161  and  _162
REMARK   71  A    between atoms: _161  and  _164
REMARK   72  A    between atoms: _168  and  _169
REMARK   73  A    between atoms: _174  and  _176
REMARK   74  A    between atoms: _176  and  _177
REMARK   75  A    between atoms: _180  and  _182
REMARK   76  A    between atoms: _182  and  _183
REMARK   77  A    between atoms: _182  and  _185
REMARK   78  A    between atoms: _185  and  _186
REMARK   79  A    between atoms: _192  and  _194
REMARK   80  A    between atoms: _194  and  _195
REMARK   81  A    between atoms: _194  and  _197
REMARK   82  A    between atoms: _197  and  _198
REMARK   83  A    between atoms: _198  and  _199
REMARK   84  A    between atoms: _202  and  _204
REMARK   85  A    between atoms: _204  and  _205
REMARK   86  A    between atoms: _204  and  _207
REMARK   87  A    between atoms: _207  and  _208
REMARK   88  A    between atoms: _211  and  _213
REMARK   89  A    between atoms: _213  and  _214
REMARK   90  A    between atoms: _213  and  _216
REMARK   91  A    between atoms: _216  and  _217
REMARK   92  A    between atoms: _220  and  _222
REMARK   93  A    between atoms: _222  and  _223
REMARK   94  A    between atoms: _225  and  _227
REMARK   95  A    between atoms: _227  and  _228
REMARK   96  A    between atoms: _230  and  _232
REMARK   97  A    between atoms: _232  and  _233
REMARK   98  A    between atoms: _235  and  _237
REMARK   99  A    between atoms: _237  and  _238
REMARK  100  A    between atoms: _241  and  _243
REMARK  101  A    between atoms: _243  and  _244
REMARK  102  A    between atoms: _243  and  _246
REMARK  103  A    between atoms: _246  and  _247
REMARK  104  A    between atoms: _253  and  _255
REMARK  105  A    between atoms: _255  and  _256
REMARK  106  A    between atoms: _255  and  _258
REMARK  107  A    between atoms: _258  and  _259
REMARK  108  A    between atoms: _262  and  _264
REMARK  109  A    between atoms: _264  and  _265
REMARK  110  A    between atoms: _264  and  _267
REMARK  111  A    between atoms: _267  and  _268
REMARK  112  A    between atoms: _271  and  _273
REMARK  113  A    between atoms: _273  and  _274
REMARK  114  A    between atoms: _273  and  _276
REMARK  115  A    between atoms: _276  and  _277
REMARK  116  A    between atoms: _280  and  _282
REMARK  117  A    between atoms: _282  and  _283
REMARK  118  A    between atoms: _282  and  _285
REMARK  119  A    between atoms: _285  and  _286
REMARK  120  A    between atoms: _289  and  _291
REMARK  121  A    between atoms: _291  and  _292
REMARK  122  A    between atoms: _294  and  _296
REMARK  123  A    between atoms: _296  and  _297
REMARK  124  A    between atoms: _299  and  _301
REMARK  125  A    between atoms: _301  and  _302
REMARK  126  A    between atoms: _301  and  _304
REMARK  127  A    between atoms: _304  and  _305
REMARK  128  A    between atoms: _305  and  _306
REMARK  129  A    between atoms: _309  and  _311
REMARK  130  A    between atoms: _311  and  _312
REMARK  131  A    between atoms: _311  and  _314
REMARK  132  A    between atoms: _314  and  _315
REMARK  133  A    between atoms: _318  and  _320
REMARK  134  A    between atoms: _320  and  _321
REMARK  135  A    between atoms: _320  and  _323
REMARK  136  A    between atoms: _323  and  _324
REMARK  137  A    between atoms: _330  and  _332
REMARK  138  A    between atoms: _332  and  _333
REMARK  139  A    between atoms: _332  and  _335
REMARK  140  A    between atoms: _335  and  _336
REMARK  141  A    between atoms: _339  and  _341
REMARK  142  A    between atoms: _341  and  _342
REMARK  143  A    between atoms: _341  and  _344
REMARK  144  A    between atoms: _344  and  _345
REMARK  145  A    between atoms: _345  and  _346
REMARK  146  A    between atoms: _346  and  _347
REMARK  147  A    between atoms: _347  and  _348
REMARK  148  A    between atoms: _352  and  _354
REMARK  149  A    between atoms: _354  and  _355
REMARK  150  A    between atoms: _358  and  _360
REMARK  151  A    between atoms: _360  and  _361
REMARK  152  A    between atoms: _360  and  _363
REMARK  153  A    between atoms: _363  and  _364
REMARK  154  A    between atoms: _364  and  _365
REMARK  155  A    between atoms: _368  and  _370
REMARK  156  A    between atoms: _370  and  _371
REMARK  157  A    between atoms: _370  and  _373
REMARK  158  A    between atoms: _373  and  _374
REMARK  159  A    between atoms: _374  and  _375
REMARK  160  A    between atoms: _375  and  _376
REMARK  161  A    between atoms: _376  and  _377
REMARK  162  A    between atoms: _381  and  _383
REMARK  163  A    between atoms: _383  and  _384
REMARK  164  A    between atoms: _387  and  _389
REMARK  165  A    between atoms: _389  and  _390
REMARK  166  A    between atoms: _389  and  _392
REMARK  167  A    between atoms: _392  and  _393
REMARK  168  A    between atoms: _393  and  _394
REMARK  169  A    between atoms: _394  and  _395
REMARK  170  A    between atoms: _395  and  _396
REMARK  171  A    between atoms: _400  and  _402
REMARK  172  A    between atoms: _402  and  _403
REMARK  173  A    between atoms: _402  and  _405
REMARK  174  A    between atoms: _405  and  _406
REMARK  175  A    between atoms: _409  and  _411
REMARK  176  A    between atoms: _411  and  _412
REMARK  177  A    between atoms: _411  and  _414
REMARK  178  A    between atoms: _414  and  _415
REMARK  179  A    between atoms: _415  and  _416
REMARK  180  A    between atoms: _419  and  _421
REMARK  181  A    between atoms: _421  and  _422
REMARK  182  A    between atoms: _421  and  _424
REMARK  183  A    between atoms: _424  and  _425
REMARK  184  A    between atoms: _428  and  _430
REMARK  185  A    between atoms: _430  and  _431
REMARK  186  A    between atoms: _430  and  _433
REMARK  187  A    between atoms: _433  and  _434
REMARK  188  A    between atoms: _436  and  _438
REMARK  189  A    between atoms: _438  and  _439
REMARK  190  A    between atoms: _438  and  _441
REMARK  191  A    between atoms: _441  and  _442
REMARK  192  A    between atoms: _444  and  _446
REMARK  193  A    between atoms: _446  and  _447
REMARK  194  A    between atoms: _450  and  _452
REMARK  195  A    between atoms: _452  and  _453
REMARK  196  A    between atoms: _452  and  _455
REMARK  197  A    between atoms: _455  and  _456
REMARK  198  A    between atoms: _459  and  _461
REMARK  199  A    between atoms: _461  and  _462
REMARK  200  A    between atoms: _461  and  _464
REMARK  201  A    between atoms: _467  and  _469
REMARK  202  A    between atoms: _469  and  _470
REMARK  203  A    between atoms: _472  and  _474
REMARK  204  A    between atoms: _474  and  _475
REMARK  205  A    between atoms: _477  and  _479
REMARK  206  A    between atoms: _479  and  _480
REMARK  207  A    between atoms: _479  and  _482
REMARK  208  A    between atoms: _482  and  _483
REMARK  209  A    between atoms: _483  and  _484
REMARK  210  A    between atoms: _489  and  _491
REMARK  211  A    between atoms: _491  and  _492
REMARK  212  A    between atoms: _491  and  _494
REMARK  213  A    between atoms: _494  and  _495
REMARK  214  A    between atoms: _498  and  _500
REMARK  215  A    between atoms: _500  and  _501
REMARK  216  A    between atoms: _500  and  _503
REMARK  217  A    between atoms: _503  and  _504
REMARK  218  A    between atoms: _504  and  _505
REMARK  219  A    between atoms: _505  and  _506
REMARK  220  A    between atoms: _515  and  _517
REMARK  221  A    between atoms: _517  and  _518
REMARK  222  A    between atoms: _517  and  _520
REMARK  223  A    between atoms: _520  and  _521
REMARK  224  A    between atoms: _521  and  _522
REMARK  225  A    between atoms: _525  and  _526
REMARK  226  A    between atoms: _531  and  _533
REMARK  227  A    between atoms: _533  and  _534
REMARK  228  A    between atoms: _533  and  _536
REMARK  229  A    between atoms: _539  and  _541
REMARK  230  A    between atoms: _541  and  _542
REMARK  231  A    between atoms: _541  and  _544
REMARK  232  A    between atoms: _544  and  _545
REMARK  233  A    between atoms: _545  and  _546
REMARK  234  A    between atoms: _552  and  _553
REMARK  235  A    between atoms: _558  and  _560
REMARK  236  A    between atoms: _560  and  _561
REMARK  237  A    between atoms: _560  and  _563
REMARK  238  A    between atoms: _563  and  _564
REMARK  239  A    between atoms: _567  and  _569
REMARK  240  A    between atoms: _569  and  _570
REMARK  241  A    between atoms: _569  and  _572
REMARK  242  A    between atoms: _572  and  _573
REMARK  243  A    between atoms: _573  and  _574
REMARK  244  A    between atoms: _577  and  _579
REMARK  245  A    between atoms: _579  and  _580
REMARK  246  A    between atoms: _579  and  _582
REMARK  247  A    between atoms: _585  and  _587
REMARK  248  A    between atoms: _587  and  _588
REMARK  249  A    between atoms: _591  and  _593
REMARK  250  A    between atoms: _593  and  _594
REMARK  251  A    between atoms: _593  and  _596
REMARK  252  A    between atoms: _596  and  _597
REMARK  253  A    between atoms: _597  and  _598
REMARK  254  A    between atoms: _601  and  _603
REMARK  255  A    between atoms: _603  and  _604
REMARK  256  A    between atoms: _606  and  _608
REMARK  257  A    between atoms: _608  and  _609
REMARK  258  A    between atoms: _608  and  _611
REMARK  259  A    between atoms: _611  and  _612
REMARK                            x       y       z     vdW  Elec       q    Type
REMARK                         _______ _______ _______ _____ _____    ______ ____
ROOT
ATOM      1  CB  PHE A   1       2.514  76.008  26.332  0.00  0.00    +0.051 C 
ENDROOT
BRANCH   1   2
ATOM      2  CG  PHE A   1       3.671  76.830  25.833  0.00  0.00    -0.020 A 
ATOM      3  CD2 PHE A   1       4.376  77.658  26.682  0.00  0.00    -0.004 A 
ATOM      4  CE2 PHE A   1       5.438  78.420  26.208  0.00  0.00    -0.000 A 
ATOM      5  CZ  PHE A   1       5.797  78.354  24.866  0.00  0.00    -0.000 A 
ATOM      6  CE1 PHE A   1       5.094  77.534  24.009  0.00  0.00    -0.000 A 
ATOM      7  CD1 PHE A   1       4.037  76.779  24.489  0.00  0.00    -0.004 A 
ENDBRANCH   1   2
BRANCH   1   8
ATOM      8  CA  PHE A   1       1.895  76.520  27.636  0.00  0.00    +0.137 C 
BRANCH   8   9
ATOM      9  N   PHE A   1       2.261  75.656  28.757  0.00  0.00    -0.239 NA
ATOM     10  H   PHE A   1       2.898  74.851  28.593  0.00  0.00    +0.142 HD
ENDBRANCH   8   9
BRANCH   8  11
ATOM     11  C   PHE A   1       0.385  76.559  27.472  0.00  0.00    +0.224 C 
ATOM     12  O   PHE A   1      -0.284  75.528  27.586  0.00  0.00    -0.287 OA
ENDBRANCH   8  11
ENDBRANCH   1   8
TORSDOF 4
REMARK  Name = ../refined-set-2016/4jne/4jne_pocket.pdb
REMARK  259 active torsions:
REMARK  status: ('A' for Active; 'I' for Inactive)
REMARK    1  A    between atoms: _1  and  _3
REMARK    2  A    between atoms: _3  and  _4
REMARK    3  A    between atoms: _3  and  _6
REMARK    4  A    between atoms: _6  and  _7
REMARK    5  A    between atoms: _10  and  _12
REMARK    6  A    between atoms: _12  and  _13
REMARK    7  A    between atoms: _12  and  _15
REMARK    8  A    between atoms: _15  and  _16
REMARK    9  A    between atoms: _19  and  _21
REMARK   10  A    between atoms: _21  and  _22
REMARK   11  A    between atoms: _24  and  _26
REMARK   12  A    between atoms: _26  and  _27
REMARK   13  A    between atoms: _26  and  _29
REMARK   14  A    between atoms: _29  and  _30
REMARK   15  A    between atoms: _33  and  _35
REMARK   16  A    between atoms: _35  and  _36
REMARK   17  A    between atoms: _35  and  _38
REMARK   18  A    between atoms: _38  and  _39
REMARK   19  A    between atoms: _42  and  _44
REMARK   20  A    between atoms: _44  and  _45
REMARK   21  A    between atoms: _44  and  _47
REMARK   22  A    between atoms: _47  and  _48
REMARK   23  A    between atoms: _53  and  _55
REMARK   24  A    between atoms: _55  and  _56
REMARK   25  A    between atoms: _55  and  _58
REMARK   26  A    between atoms: _58  and  _59
REMARK   27  A    between atoms: _61  and  _63
REMARK   28  A    between atoms: _63  and  _64
REMARK   29  A    between atoms: _63  and  _66
REMARK   30  A    between atoms: _68  and  _70
REMARK   31  A    between atoms: _70  and  _71
REMARK   32  A    between atoms: _70  and  _73
REMARK   33  A    between atoms: _73  and  _74
REMARK   34  A    between atoms: _77  and  _79
REMARK   35  A    between atoms: _79  and  _80
REMARK   36  A    between atoms: _79  and  _82
REMARK   37  A    between atoms: _82  and  _83
REMARK   38  A    between atoms: _87  and  _88
REMARK   39  A    between atoms: _93  and  _95
REMARK   40  A    between atoms: _95  and  _96
REMARK   41  A    between atoms: _95  and  _98
REMARK   42  A    between atoms: _98  and  _99
REMARK   43  A    between atoms: _101  and  _103
REMARK   44  A    between atoms: _103  and  _104
REMARK   45  A    between atoms: _103  and  _106
REMARK   46  A    between atoms: _106  and  _107
REMARK   47  A    between atoms: _107  and  _108
REMARK   48  A    between atoms: _108  and  _109
REMARK   49  A    between atoms: _109  and  _110
REMARK   50  A    between atoms: _114  and  _116
REMARK   51  A    between atoms: _116  and  _117
REMARK   52  A    between atoms: _120  and  _122
REMARK   53  A    between atoms: _122  and  _123
REMARK   54  A    between atoms: _122  and  _125
REMARK   55  A    between atoms: _125  and  _126
REMARK   56  A    between atoms: _126  and  _127
REMARK   57  A    between atoms: _127  and  _128
REMARK   58  A    between atoms: _128  and  _129
REMARK   59  A    between atoms: _133  and  _135
REMARK   60  A    between atoms: _135  and  _136
REMARK   61  A    between atoms: _135  and  _138
REMARK   62  A    between atoms: _138  and  _139
REMARK   63  A    between atoms: _139  and  _140
REMARK   64  A    between atoms: _140  and  _141
REMARK   65  A    between atoms: _150  and  _152
REMARK   66  A    between atoms: _152  and  _153
REMARK   67  A    between atoms: _152  and  _155
REMARK   68  A    between atoms: _155  and  _156
REMARK   69  A    between atoms: _159  and  _161
REMARK   70  A    between atoms: _161  and  _162
REMARK   71  A    between atoms: _161  and  _164
REMARK   72  A    between atoms: _168  and  _169
REMARK   73  A    between atoms: _174  and  _176
REMARK   74  A    between atoms: _176  and  _177
REMARK   75  A    between atoms: _180  and  _182
REMARK   76  A    between atoms: _182  and  _183
REMARK   77  A    between atoms: _182  and  _185
REMARK   78  A    between atoms: _185  and  _186
REMARK   79  A    between atoms: _192  and  _194
REMARK   80  A    between atoms: _194  and  _195
REMARK   81  A    between atoms: _194  and  _197
REMARK   82  A    between atoms: _197  and  _198
REMARK   83  A    between atoms: _198  and  _199
REMARK   84  A    between atoms: _202  and  _204
REMARK   85  A    between atoms: _204  and  _205
REMARK   86  A    between atoms: _204  and  _207
REMARK   87  A    between atoms: _207  and  _208
REMARK   88  A    between atoms: _211  and  _213
REMARK   89  A    between atoms: _213  and  _214
REMARK   90  A    between atoms: _213  and  _216
REMARK   91  A    between atoms: _216  and  _217
REMARK   92  A    between atoms: _220  and  _222
REMARK   93  A    between atoms: _222  and  _223
REMARK   94  A    between atoms: _225  and  _227
REMARK   95  A    between atoms: _227  and  _228
REMARK   96  A    between atoms: _230  and  _232
REMARK   97  A    between atoms: _232  and  _233
REMARK   98  A    between atoms: _235  and  _237
REMARK   99  A    between atoms: _237  and  _238
REMARK  100  A    between atoms: _241  and  _243
REMARK  101  A    between atoms: _243  and  _244
REMARK  102  A    between atoms: _243  and  _246
REMARK  103  A    between atoms: _246  and  _247
REMARK  104  A    between atoms: _253  and  _255
REMARK  105  A    between atoms: _255  and  _256
REMARK  106  A    between atoms: _255  and  _258
REMARK  107  A    between atoms: _258  and  _259
REMARK  108  A    between atoms: _262  and  _264
REMARK  109  A    between atoms: _264  and  _265
REMARK  110  A    between atoms: _264  and  _267
REMARK  111  A    between atoms: _267  and  _268
REMARK  112  A    between atoms: _271  and  _273
REMARK  113  A    between atoms: _273  and  _274
REMARK  114  A    between atoms: _273  and  _276
REMARK  115  A    between atoms: _276  and  _277
REMARK  116  A    between atoms: _280  and  _282
REMARK  117  A    between atoms: _282  and  _283
REMARK  118  A    between atoms: _282  and  _285
REMARK  119  A    between atoms: _285  and  _286
REMARK  120  A    between atoms: _289  and  _291
REMARK  121  A    between atoms: _291  and  _292
REMARK  122  A    between atoms: _294  and  _296
REMARK  123  A    between atoms: _296  and  _297
REMARK  124  A    between atoms: _299  and  _301
REMARK  125  A    between atoms: _301  and  _302
REMARK  126  A    between atoms: _301  and  _304
REMARK  127  A    between atoms: _304  and  _305
REMARK  128  A    between atoms: _305  and  _306
REMARK  129  A    between atoms: _309  and  _311
REMARK  130  A    between atoms: _311  and  _312
REMARK  131  A    between atoms: _311  and  _314
REMARK  132  A    between atoms: _314  and  _315
REMARK  133  A    between atoms: _318  and  _320
REMARK  134  A    between atoms: _320  and  _321
REMARK  135  A    between atoms: _320  and  _323
REMARK  136  A    between atoms: _323  and  _324
REMARK  137  A    between atoms: _330  and  _332
REMARK  138  A    between atoms: _332  and  _333
REMARK  139  A    between atoms: _332  and  _335
REMARK  140  A    between atoms: _335  and  _336
REMARK  141  A    between atoms: _339  and  _341
REMARK  142  A    between atoms: _341  and  _342
REMARK  143  A    between atoms: _341  and  _344
REMARK  144  A    between atoms: _344  and  _345
REMARK  145  A    between atoms: _345  and  _346
REMARK  146  A    between atoms: _346  and  _347
REMARK  147  A    between atoms: _347  and  _348
REMARK  148  A    between atoms: _352  and  _354
REMARK  149  A    between atoms: _354  and  _355
REMARK  150  A    between atoms: _358  and  _360
REMARK  151  A    between atoms: _360  and  _361
REMARK  152  A    between atoms: _360  and  _363
REMARK  153  A    between atoms: _363  and  _364
REMARK  154  A    between atoms: _364  and  _365
REMARK  155  A    between atoms: _368  and  _370
REMARK  156  A    between atoms: _370  and  _371
REMARK  157  A    between atoms: _370  and  _373
REMARK  158  A    between atoms: _373  and  _374
REMARK  159  A    between atoms: _374  and  _375
REMARK  160  A    between atoms: _375  and  _376
REMARK  161  A    between atoms: _376  and  _377
REMARK  162  A    between atoms: _381  and  _383
REMARK  163  A    between atoms: _383  and  _384
REMARK  164  A    between atoms: _387  and  _389
REMARK  165  A    between atoms: _389  and  _390
REMARK  166  A    between atoms: _389  and  _392
REMARK  167  A    between atoms: _392  and  _393
REMARK  168  A    between atoms: _393  and  _394
REMARK  169  A    between atoms: _394  and  _395
REMARK  170  A    between atoms: _395  and  _396
REMARK  171  A    between atoms: _400  and  _402
REMARK  172  A    between atoms: _402  and  _403
REMARK  173  A    between atoms: _402  and  _405
REMARK  174  A    between atoms: _405  and  _406
REMARK  175  A    between atoms: _409  and  _411
REMARK  176  A    between atoms: _411  and  _412
REMARK  177  A    between atoms: _411  and  _414
REMARK  178  A    between atoms: _414  and  _415
REMARK  179  A    between atoms: _415  and  _416
REMARK  180  A    between atoms: _419  and  _421
REMARK  181  A    between atoms: _421  and  _422
REMARK  182  A    between atoms: _421  and  _424
REMARK  183  A    between atoms: _424  and  _425
REMARK  184  A    between atoms: _428  and  _430
REMARK  185  A    between atoms: _430  and  _431
REMARK  186  A    between atoms: _430  and  _433
REMARK  187  A    between atoms: _433  and  _434
REMARK  188  A    between atoms: _436  and  _438
REMARK  189  A    between atoms: _438  and  _439
REMARK  190  A    between atoms: _438  and  _441
REMARK  191  A    between atoms: _441  and  _442
REMARK  192  A    between atoms: _444  and  _446
REMARK  193  A    between atoms: _446  and  _447
REMARK  194  A    between atoms: _450  and  _452
REMARK  195  A    between atoms: _452  and  _453
REMARK  196  A    between atoms: _452  and  _455
REMARK  197  A    between atoms: _455  and  _456
REMARK  198  A    between atoms: _459  and  _461
REMARK  199  A    between atoms: _461  and  _462
REMARK  200  A    between atoms: _461  and  _464
REMARK  201  A    between atoms: _467  and  _469
REMARK  202  A    between atoms: _469  and  _470
REMARK  203  A    between atoms: _472  and  _474
REMARK  204  A    between atoms: _474  and  _475
REMARK  205  A    between atoms: _477  and  _479
REMARK  206  A    between atoms: _479  and  _480
REMARK  207  A    between atoms: _479  and  _482
REMARK  208  A    between atoms: _482  and  _483
REMARK  209  A    between atoms: _483  and  _484
REMARK  210  A    between atoms: _489  and  _491
REMARK  211  A    between atoms: _491  and  _492
REMARK  212  A    between atoms: _491  and  _494
REMARK  213  A    between atoms: _494  and  _495
REMARK  214  A    between atoms: _498  and  _500
REMARK  215  A    between atoms: _500  and  _501
REMARK  216  A    between atoms: _500  and  _503
REMARK  217  A    between atoms: _503  and  _504
REMARK  218  A    between atoms: _504  and  _505
REMARK  219  A    between atoms: _505  and  _506
REMARK  220  A    between atoms: _515  and  _517
REMARK  221  A    between atoms: _517  and  _518
REMARK  222  A    between atoms: _517  and  _520
REMARK  223  A    between atoms: _520  and  _521
REMARK  224  A    between atoms: _521  and  _522
REMARK  225  A    between atoms: _525  and  _526
REMARK  226  A    between atoms: _531  and  _533
REMARK  227  A    between atoms: _533  and  _534
REMARK  228  A    between atoms: _533  and  _536
REMARK  229  A    between atoms: _539  and  _541
REMARK  230  A    between atoms: _541  and  _542
REMARK  231  A    between atoms: _541  and  _544
REMARK  232  A    between atoms: _544  and  _545
REMARK  233  A    between atoms: _545  and  _546
REMARK  234  A    between atoms: _552  and  _553
REMARK  235  A    between atoms: _558  and  _560
REMARK  236  A    between atoms: _560  and  _561
REMARK  237  A    between atoms: _560  and  _563
REMARK  238  A    between atoms: _563  and  _564
REMARK  239  A    between atoms: _567  and  _569
REMARK  240  A    between atoms: _569  and  _570
REMARK  241  A    between atoms: _569  and  _572
REMARK  242  A    between atoms: _572  and  _573
REMARK  243  A    between atoms: _573  and  _574
REMARK  244  A    between atoms: _577  and  _579
REMARK  245  A    between atoms: _579  and  _580
REMARK  246  A    between atoms: _579  and  _582
REMARK  247  A    between atoms: _585  and  _587
REMARK  248  A    between atoms: _587  and  _588
REMARK  249  A    between atoms: _591  and  _593
REMARK  250  A    between atoms: _593  and  _594
REMARK  251  A    between atoms: _593  and  _596
REMARK  252  A    between atoms: _596  and  _597
REMARK  253  A    between atoms: _597  and  _598
REMARK  254  A    between atoms: _601  and  _603
REMARK  255  A    between atoms: _603  and  _604
REMARK  256  A    between atoms: _606  and  _608
REMARK  257  A    between atoms: _608  and  _609
REMARK  258  A    between atoms: _608  and  _611
REMARK  259  A    between atoms: _611  and  _612
REMARK                            x       y       z     vdW  Elec       q    Type
REMARK                         _______ _______ _______ _____ _____    ______ ____
ROOT
ATOM      1  CA  GLU A   1       8.350  68.808  27.536  0.00  0.00    +0.134 C 
ENDROOT
BRANCH   1   2
ATOM      2  N   GLU A   1       6.939  69.095  27.324  0.00  0.00    -0.239 NA
ATOM      3  H   GLU A   1       6.593  70.067  27.454  0.00  0.00    +0.142 HD
ENDBRANCH   1   2
BRANCH   1   4
ATOM      4  C   GLU A   1       8.653  67.803  28.662  0.00  0.00    +0.224 C 
ATOM      5  O   GLU A   1       9.503  66.933  28.496  0.00  0.00    -0.287 OA
ENDBRANCH   1   4
BRANCH   1   6
ATOM      6  CB  GLU A   1       9.145  70.124  27.649  0.00  0.00    +0.037 C 
BRANCH   6   7
ATOM      7  CG  GLU A   1       9.272  70.789  26.269  0.00  0.00    +0.116 C 
BRANCH   7   8
ATOM      8  CD  GLU A   1       9.636  72.271  26.288  0.00  0.00    +0.365 C 
ATOM      9  OE2 GLU A   1       9.738  72.887  27.374  0.00  0.00    -0.246 OA
ATOM     10  OE1 GLU A   1       9.817  72.827  25.184  0.00  0.00    -0.246 OA
ENDBRANCH   7   8
ENDBRANCH   6   7
ENDBRANCH   1   6
TORSDOF 5
REMARK  Name = ../refined-set-2016/4jne/4jne_pocket.pdb
REMARK  259 active torsions:
REMARK  status: ('A' for Active; 'I' for Inactive)
REMARK    1  A    between atoms: _1  and  _3
REMARK    2  A    between atoms: _3  and  _4
REMARK    3  A    between atoms: _3  and  _6
REMARK    4  A    between atoms: _6  and  _7
REMARK    5  A    between atoms: _10  and  _12
REMARK    6  A    between atoms: _12  and  _13
REMARK    7  A    between atoms: _12  and  _15
REMARK    8  A    between atoms: _15  and  _16
REMARK    9  A    between atoms: _19  and  _21
REMARK   10  A    between atoms: _21  and  _22
REMARK   11  A    between atoms: _24  and  _26
REMARK   12  A    between atoms: _26  and  _27
REMARK   13  A    between atoms: _26  and  _29
REMARK   14  A    between atoms: _29  and  _30
REMARK   15  A    between atoms: _33  and  _35
REMARK   16  A    between atoms: _35  and  _36
REMARK   17  A    between atoms: _35  and  _38
REMARK   18  A    between atoms: _38  and  _39
REMARK   19  A    between atoms: _42  and  _44
REMARK   20  A    between atoms: _44  and  _45
REMARK   21  A    between atoms: _44  and  _47
REMARK   22  A    between atoms: _47  and  _48
REMARK   23  A    between atoms: _53  and  _55
REMARK   24  A    between atoms: _55  and  _56
REMARK   25  A    between atoms: _55  and  _58
REMARK   26  A    between atoms: _58  and  _59
REMARK   27  A    between atoms: _61  and  _63
REMARK   28  A    between atoms: _63  and  _64
REMARK   29  A    between atoms: _63  and  _66
REMARK   30  A    between atoms: _68  and  _70
REMARK   31  A    between atoms: _70  and  _71
REMARK   32  A    between atoms: _70  and  _73
REMARK   33  A    between atoms: _73  and  _74
REMARK   34  A    between atoms: _77  and  _79
REMARK   35  A    between atoms: _79  and  _80
REMARK   36  A    between atoms: _79  and  _82
REMARK   37  A    between atoms: _82  and  _83
REMARK   38  A    between atoms: _87  and  _88
REMARK   39  A    between atoms: _93  and  _95
REMARK   40  A    between atoms: _95  and  _96
REMARK   41  A    between atoms: _95  and  _98
REMARK   42  A    between atoms: _98  and  _99
REMARK   43  A    between atoms: _101  and  _103
REMARK   44  A    between atoms: _103  and  _104
REMARK   45  A    between atoms: _103  and  _106
REMARK   46  A    between atoms: _106  and  _107
REMARK   47  A    between atoms: _107  and  _108
REMARK   48  A    between atoms: _108  and  _109
REMARK   49  A    between atoms: _109  and  _110
REMARK   50  A    between atoms: _114  and  _116
REMARK   51  A    between atoms: _116  and  _117
REMARK   52  A    between atoms: _120  and  _122
REMARK   53  A    between atoms: _122  and  _123
REMARK   54  A    between atoms: _122  and  _125
REMARK   55  A    between atoms: _125  and  _126
REMARK   56  A    between atoms: _126  and  _127
REMARK   57  A    between atoms: _127  and  _128
REMARK   58  A    between atoms: _128  and  _129
REMARK   59  A    between atoms: _133  and  _135
REMARK   60  A    between atoms: _135  and  _136
REMARK   61  A    between atoms: _135  and  _138
REMARK   62  A    between atoms: _138  and  _139
REMARK   63  A    between atoms: _139  and  _140
REMARK   64  A    between atoms: _140  and  _141
REMARK   65  A    between atoms: _150  and  _152
REMARK   66  A    between atoms: _152  and  _153
REMARK   67  A    between atoms: _152  and  _155
REMARK   68  A    between atoms: _155  and  _156
REMARK   69  A    between atoms: _159  and  _161
REMARK   70  A    between atoms: _161  and  _162
REMARK   71  A    between atoms: _161  and  _164
REMARK   72  A    between atoms: _168  and  _169
REMARK   73  A    between atoms: _174  and  _176
REMARK   74  A    between atoms: _176  and  _177
REMARK   75  A    between atoms: _180  and  _182
REMARK   76  A    between atoms: _182  and  _183
REMARK   77  A    between atoms: _182  and  _185
REMARK   78  A    between atoms: _185  and  _186
REMARK   79  A    between atoms: _192  and  _194
REMARK   80  A    between atoms: _194  and  _195
REMARK   81  A    between atoms: _194  and  _197
REMARK   82  A    between atoms: _197  and  _198
REMARK   83  A    between atoms: _198  and  _199
REMARK   84  A    between atoms: _202  and  _204
REMARK   85  A    between atoms: _204  and  _205
REMARK   86  A    between atoms: _204  and  _207
REMARK   87  A    between atoms: _207  and  _208
REMARK   88  A    between atoms: _211  and  _213
REMARK   89  A    between atoms: _213  and  _214
REMARK   90  A    between atoms: _213  and  _216
REMARK   91  A    between atoms: _216  and  _217
REMARK   92  A    between atoms: _220  and  _222
REMARK   93  A    between atoms: _222  and  _223
REMARK   94  A    between atoms: _225  and  _227
REMARK   95  A    between atoms: _227  and  _228
REMARK   96  A    between atoms: _230  and  _232
REMARK   97  A    between atoms: _232  and  _233
REMARK   98  A    between atoms: _235  and  _237
REMARK   99  A    between atoms: _237  and  _238
REMARK  100  A    between atoms: _241  and  _243
REMARK  101  A    between atoms: _243  and  _244
REMARK  102  A    between atoms: _243  and  _246
REMARK  103  A    between atoms: _246  and  _247
REMARK  104  A    between atoms: _253  and  _255
REMARK  105  A    between atoms: _255  and  _256
REMARK  106  A    between atoms: _255  and  _258
REMARK  107  A    between atoms: _258  and  _259
REMARK  108  A    between atoms: _262  and  _264
REMARK  109  A    between atoms: _264  and  _265
REMARK  110  A    between atoms: _264  and  _267
REMARK  111  A    between atoms: _267  and  _268
REMARK  112  A    between atoms: _271  and  _273
REMARK  113  A    between atoms: _273  and  _274
REMARK  114  A    between atoms: _273  and  _276
REMARK  115  A    between atoms: _276  and  _277
REMARK  116  A    between atoms: _280  and  _282
REMARK  117  A    between atoms: _282  and  _283
REMARK  118  A    between atoms: _282  and  _285
REMARK  119  A    between atoms: _285  and  _286
REMARK  120  A    between atoms: _289  and  _291
REMARK  121  A    between atoms: _291  and  _292
REMARK  122  A    between atoms: _294  and  _296
REMARK  123  A    between atoms: _296  and  _297
REMARK  124  A    between atoms: _299  and  _301
REMARK  125  A    between atoms: _301  and  _302
REMARK  126  A    between atoms: _301  and  _304
REMARK  127  A    between atoms: _304  and  _305
REMARK  128  A    between atoms: _305  and  _306
REMARK  129  A    between atoms: _309  and  _311
REMARK  130  A    between atoms: _311  and  _312
REMARK  131  A    between atoms: _311  and  _314
REMARK  132  A    between atoms: _314  and  _315
REMARK  133  A    between atoms: _318  and  _320
REMARK  134  A    between atoms: _320  and  _321
REMARK  135  A    between atoms: _320  and  _323
REMARK  136  A    between atoms: _323  and  _324
REMARK  137  A    between atoms: _330  and  _332
REMARK  138  A    between atoms: _332  and  _333
REMARK  139  A    between atoms: _332  and  _335
REMARK  140  A    between atoms: _335  and  _336
REMARK  141  A    between atoms: _339  and  _341
REMARK  142  A    between atoms: _341  and  _342
REMARK  143  A    between atoms: _341  and  _344
REMARK  144  A    between atoms: _344  and  _345
REMARK  145  A    between atoms: _345  and  _346
REMARK  146  A    between atoms: _346  and  _347
REMARK  147  A    between atoms: _347  and  _348
REMARK  148  A    between atoms: _352  and  _354
REMARK  149  A    between atoms: _354  and  _355
REMARK  150  A    between atoms: _358  and  _360
REMARK  151  A    between atoms: _360  and  _361
REMARK  152  A    between atoms: _360  and  _363
REMARK  153  A    between atoms: _363  and  _364
REMARK  154  A    between atoms: _364  and  _365
REMARK  155  A    between atoms: _368  and  _370
REMARK  156  A    between atoms: _370  and  _371
REMARK  157  A    between atoms: _370  and  _373
REMARK  158  A    between atoms: _373  and  _374
REMARK  159  A    between atoms: _374  and  _375
REMARK  160  A    between atoms: _375  and  _376
REMARK  161  A    between atoms: _376  and  _377
REMARK  162  A    between atoms: _381  and  _383
REMARK  163  A    between atoms: _383  and  _384
REMARK  164  A    between atoms: _387  and  _389
REMARK  165  A    between atoms: _389  and  _390
REMARK  166  A    between atoms: _389  and  _392
REMARK  167  A    between atoms: _392  and  _393
REMARK  168  A    between atoms: _393  and  _394
REMARK  169  A    between atoms: _394  and  _395
REMARK  170  A    between atoms: _395  and  _396
REMARK  171  A    between atoms: _400  and  _402
REMARK  172  A    between atoms: _402  and  _403
REMARK  173  A    between atoms: _402  and  _405
REMARK  174  A    between atoms: _405  and  _406
REMARK  175  A    between atoms: _409  and  _411
REMARK  176  A    between atoms: _411  and  _412
REMARK  177  A    between atoms: _411  and  _414
REMARK  178  A    between atoms: _414  and  _415
REMARK  179  A    between atoms: _415  and  _416
REMARK  180  A    between atoms: _419  and  _421
REMARK  181  A    between atoms: _421  and  _422
REMARK  182  A    between atoms: _421  and  _424
REMARK  183  A    between atoms: _424  and  _425
REMARK  184  A    between atoms: _428  and  _430
REMARK  185  A    between atoms: _430  and  _431
REMARK  186  A    between atoms: _430  and  _433
REMARK  187  A    between atoms: _433  and  _434
REMARK  188  A    between atoms: _436  and  _438
REMARK  189  A    between atoms: _438  and  _439
REMARK  190  A    between atoms: _438  and  _441
REMARK  191  A    between atoms: _441  and  _442
REMARK  192  A    between atoms: _444  and  _446
REMARK  193  A    between atoms: _446  and  _447
REMARK  194  A    between atoms: _450  and  _452
REMARK  195  A    between atoms: _452  and  _453
REMARK  196  A    between atoms: _452  and  _455
REMARK  197  A    between atoms: _455  and  _456
REMARK  198  A    between atoms: _459  and  _461
REMARK  199  A    between atoms: _461  and  _462
REMARK  200  A    between atoms: _461  and  _464
REMARK  201  A    between atoms: _467  and  _469
REMARK  202  A    between atoms: _469  and  _470
REMARK  203  A    between atoms: _472  and  _474
REMARK  204  A    between atoms: _474  and  _475
REMARK  205  A    between atoms: _477  and  _479
REMARK  206  A    between atoms: _479  and  _480
REMARK  207  A    between atoms: _479  and  _482
REMARK  208  A    between atoms: _482  and  _483
REMARK  209  A    between atoms: _483  and  _484
REMARK  210  A    between atoms: _489  and  _491
REMARK  211  A    between atoms: _491  and  _492
REMARK  212  A    between atoms: _491  and  _494
REMARK  213  A    between atoms: _494  and  _495
REMARK  214  A    between atoms: _498  and  _500
REMARK  215  A    between atoms: _500  and  _501
REMARK  216  A    between atoms: _500  and  _503
REMARK  217  A    between atoms: _503  and  _504
REMARK  218  A    between atoms: _504  and  _505
REMARK  219  A    between atoms: _505  and  _506
REMARK  220  A    between atoms: _515  and  _517
REMARK  221  A    between atoms: _517  and  _518
REMARK  222  A    between atoms: _517  and  _520
REMARK  223  A    between atoms: _520  and  _521
REMARK  224  A    between atoms: _521  and  _522
REMARK  225  A    between atoms: _525  and  _526
REMARK  226  A    between atoms: _531  and  _533
REMARK  227  A    between atoms: _533  and  _534
REMARK  228  A    between atoms: _533  and  _536
REMARK  229  A    between atoms: _539  and  _541
REMARK  230  A    between atoms: _541  and  _542
REMARK  231  A    between atoms: _541  and  _544
REMARK  232  A    between atoms: _544  and  _545
REMARK  233  A    between atoms: _545  and  _546
REMARK  234  A    between atoms: _552  and  _553
REMARK  235  A    between atoms: _558  and  _560
REMARK  236  A    between atoms: _560  and  _561
REMARK  237  A    between atoms: _560  and  _563
REMARK  238  A    between atoms: _563  and  _564
REMARK  239  A    between atoms: _567  and  _569
REMARK  240  A    between atoms: _569  and  _570
REMARK  241  A    between atoms: _569  and  _572
REMARK  242  A    between atoms: _572  and  _573
REMARK  243  A    between atoms: _573  and  _574
REMARK  244  A    between atoms: _577  and  _579
REMARK  245  A    between atoms: _579  and  _580
REMARK  246  A    between atoms: _579  and  _582
REMARK  247  A    between atoms: _585  and  _587
REMARK  248  A    between atoms: _587  and  _588
REMARK  249  A    between atoms: _591  and  _593
REMARK  250  A    between atoms: _593  and  _594
REMARK  251  A    between atoms: _593  and  _596
REMARK  252  A    between atoms: _596  and  _597
REMARK  253  A    between atoms: _597  and  _598
REMARK  254  A    between atoms: _601  and  _603
REMARK  255  A    between atoms: _603  and  _604
REMARK  256  A    between atoms: _606  and  _608
REMARK  257  A    between atoms: _608  and  _609
REMARK  258  A    between atoms: _608  and  _611
REMARK  259  A    between atoms: _611  and  _612
REMARK                            x       y       z     vdW  Elec       q    Type
REMARK                         _______ _______ _______ _____ _____    ______ ____
ROOT
ATOM      1  C   GLY A   4      14.939  80.316  30.308  0.00  0.00    +0.243 C 
ATOM      2  O   GLY A   4      15.097  81.496  30.584  0.00  0.00    -0.273 OA
ATOM      3  N   GLY A   5      13.736  79.803  30.072  0.00  0.00    -0.295 N 
ATOM      4  H   GLY A   5      13.631  78.781  29.912  0.00  0.00    +0.150 HD
ENDROOT
BRANCH   1   5
ATOM      5  CA  GLY A   4      16.139  79.378  30.235  0.00  0.00    +0.176 C 
BRANCH   5   8
ATOM      6  C   GLY A   3      15.473  77.465  31.559  0.00  0.00    +0.243 C 
ATOM      7  O   GLY A   3      15.481  78.123  32.601  0.00  0.00    -0.273 OA
ATOM      8  N   GLY A   4      15.788  77.979  30.375  0.00  0.00    -0.295 N 
ATOM      9  H   GLY A   4      15.783  77.367  29.534  0.00  0.00    +0.150 HD
BRANCH   6  10
ATOM     10  CA  GLY A   3      15.082  76.003  31.578  0.00  0.00    +0.176 C 
BRANCH  10  13
ATOM     11  C   LEU A   2      14.708  74.967  33.756  0.00  0.00    +0.241 C 
ATOM     12  O   LEU A   2      15.876  74.603  33.859  0.00  0.00    -0.273 OA
ATOM     13  N   GLY A   3      14.253  75.689  32.731  0.00  0.00    -0.295 N 
ATOM     14  H   GLY A   3      13.274  76.039  32.757  0.00  0.00    +0.150 HD
BRANCH  11  15
ATOM     15  CA  LEU A   2      13.694  74.586  34.817  0.00  0.00    +0.149 C 
BRANCH  15  17
ATOM     16  C   ASP A   1      12.211  72.701  34.408  0.00  0.00    +0.239 C 
ATOM     17  N   LEU A   2      13.414  73.163  34.724  0.00  0.00    -0.297 N 
ATOM     18  H   LEU A   2      14.181  72.486  34.911  0.00  0.00    +0.150 HD
ATOM     19  O   ASP A   1      11.246  73.435  34.186  0.00  0.00    -0.274 OA
BRANCH  16  20
ATOM     20  CA  ASP A   1      12.084  71.185  34.331  0.00  0.00    +0.156 C 
BRANCH  20  21
ATOM     21  N   ASP A   1      11.386  70.662  35.502  0.00  0.00    -0.238 NA
ATOM     22  H   ASP A   1      10.421  70.991  35.706  0.00  0.00    +0.142 HD
ENDBRANCH  20  21
BRANCH  20  23
ATOM     23  CB  ASP A   1      11.353  70.771  33.041  0.00  0.00    +0.140 C 
BRANCH  23  24
ATOM     24  CG  ASP A   1      12.132  71.131  31.773  0.00  0.00    +0.367 C 
ATOM     25  OD2 ASP A   1      13.014  72.014  31.839  0.00  0.00    -0.246 OA
ATOM     26  OD1 ASP A   1      11.846  70.541  30.703  0.00  0.00    -0.246 OA
ENDBRANCH  23  24
ENDBRANCH  20  23
ENDBRANCH  16  20
ENDBRANCH  15  17
BRANCH  15  27
ATOM     27  CB  LEU A   2      14.228  74.933  36.217  0.00  0.00    +0.029 C 
BRANCH  27  28
ATOM     28  CG  LEU A   2      14.406  76.425  36.507  0.00  0.00    +0.002 C 
ATOM     29  CD2 LEU A   2      14.985  76.643  37.903  0.00  0.00    +0.000 C 
ATOM     30  CD1 LEU A   2      13.074  77.156  36.347  0.00  0.00    +0.000 C 
ENDBRANCH  27  28
ENDBRANCH  15  27
ENDBRANCH  11  15
ENDBRANCH  10  13
ENDBRANCH   6  10
ENDBRANCH   5   8
ENDBRANCH   1   5
BRANCH   3  31
ATOM     31  CA  GLY A   5      12.565  80.665  30.037  0.00  0.00    +0.176 C 
BRANCH  31  32
ATOM     32  C   GLY A   5      11.339  80.187  30.798  0.00  0.00    +0.243 C 
ATOM     33  O   GLY A   5      10.554  81.001  31.287  0.00  0.00    -0.273 OA
ATOM     34  N   ALA A   6      11.165  78.875  30.896  0.00  0.00    -0.297 N 
ATOM     35  H   ALA A   6      11.909  78.235  30.553  0.00  0.00    +0.150 HD
BRANCH  34  36
ATOM     36  CA  ALA A   6       9.949  78.314  31.476  0.00  0.00    +0.149 C 
ATOM     37  CB  ALA A   6       9.089  77.679  30.385  0.00  0.00    +0.031 C 
BRANCH  36  38
ATOM     38  C   ALA A   6      10.226  77.292  32.573  0.00  0.00    +0.241 C 
ATOM     39  N   PHE A   7       9.254  77.135  33.467  0.00  0.00    -0.297 N 
ATOM     40  H   PHE A   7       8.424  77.760  33.422  0.00  0.00    +0.150 HD
ATOM     41  O   ALA A   6      11.286  76.662  32.603  0.00  0.00    -0.273 OA
BRANCH  39  42
ATOM     42  CA  PHE A   7       9.314  76.120  34.504  0.00  0.00    +0.153 C 
BRANCH  42  43
ATOM     43  C   PHE A   7       8.091  75.217  34.443  0.00  0.00    +0.241 C 
ATOM     44  N   ASP A   8       8.326  73.907  34.434  0.00  0.00    -0.298 N 
ATOM     45  H   ASP A   8       9.312  73.580  34.396  0.00  0.00    +0.150 HD
ATOM     46  O   PHE A   7       6.964  75.701  34.394  0.00  0.00    -0.273 OA
BRANCH  44  47
ATOM     47  CA  ASP A   8       7.261  72.909  34.475  0.00  0.00    +0.148 C 
BRANCH  47  48
ATOM     48  C   ASP A   8       7.507  71.921  35.605  0.00  0.00    +0.227 C 
ATOM     49  O   ASP A   8       8.651  71.560  35.896  0.00  0.00    -0.286 OA
ENDBRANCH  47  48
BRANCH  47  50
ATOM     50  CB  ASP A   8       7.238  72.055  33.205  0.00  0.00    +0.142 C 
BRANCH  50  51
ATOM     51  CG  ASP A   8       6.562  72.723  32.033  0.00  0.00    +0.367 C 
ATOM     52  OD2 ASP A   8       5.645  73.556  32.214  0.00  0.00    -0.246 OA
ATOM     53  OD1 ASP A   8       6.951  72.368  30.903  0.00  0.00    -0.246 OA
ENDBRANCH  50  51
ENDBRANCH  47  50
ENDBRANCH  44  47
ENDBRANCH  42  43
BRANCH  42  54
ATOM     54  CB  PHE A   7       9.389  76.751  35.893  0.00  0.00    +0.055 C 
BRANCH  54  55
ATOM     55  CG  PHE A   7       9.164  75.760  36.992  0.00  0.00    -0.020 A 
ATOM     56  CD2 PHE A   7       8.042  75.835  37.800  0.00  0.00    -0.004 A 
ATOM     57  CE2 PHE A   7       7.826  74.900  38.808  0.00  0.00    -0.000 A 
ATOM     58  CZ  PHE A   7       8.733  73.874  38.998  0.00  0.00    -0.000 A 
ATOM     59  CE1 PHE A   7       9.849  73.786  38.184  0.00  0.00    -0.000 A 
ATOM     60  CD1 PHE A   7      10.057  74.720  37.185  0.00  0.00    -0.004 A 
ENDBRANCH  54  55
ENDBRANCH  42  54
ENDBRANCH  39  42
ENDBRANCH  36  38
ENDBRANCH  34  36
ENDBRANCH  31  32
ENDBRANCH   3  31
TORSDOF 24
REMARK  Name = ../refined-set-2016/4jne/4jne_pocket.pdb
REMARK  259 active torsions:
REMARK  status: ('A' for Active; 'I' for Inactive)
REMARK    1  A    between atoms: _1  and  _3
REMARK    2  A    between atoms: _3  and  _4
REMARK    3  A    between atoms: _3  and  _6
REMARK    4  A    between atoms: _6  and  _7
REMARK    5  A    between atoms: _10  and  _12
REMARK    6  A    between atoms: _12  and  _13
REMARK    7  A    between atoms: _12  and  _15
REMARK    8  A    between atoms: _15  and  _16
REMARK    9  A    between atoms: _19  and  _21
REMARK   10  A    between atoms: _21  and  _22
REMARK   11  A    between atoms: _24  and  _26
REMARK   12  A    between atoms: _26  and  _27
REMARK   13  A    between atoms: _26  and  _29
REMARK   14  A    between atoms: _29  and  _30
REMARK   15  A    between atoms: _33  and  _35
REMARK   16  A    between atoms: _35  and  _36
REMARK   17  A    between atoms: _35  and  _38
REMARK   18  A    between atoms: _38  and  _39
REMARK   19  A    between atoms: _42  and  _44
REMARK   20  A    between atoms: _44  and  _45
REMARK   21  A    between atoms: _44  and  _47
REMARK   22  A    between atoms: _47  and  _48
REMARK   23  A    between atoms: _53  and  _55
REMARK   24  A    between atoms: _55  and  _56
REMARK   25  A    between atoms: _55  and  _58
REMARK   26  A    between atoms: _58  and  _59
REMARK   27  A    between atoms: _61  and  _63
REMARK   28  A    between atoms: _63  and  _64
REMARK   29  A    between atoms: _63  and  _66
REMARK   30  A    between atoms: _68  and  _70
REMARK   31  A    between atoms: _70  and  _71
REMARK   32  A    between atoms: _70  and  _73
REMARK   33  A    between atoms: _73  and  _74
REMARK   34  A    between atoms: _77  and  _79
REMARK   35  A    between atoms: _79  and  _80
REMARK   36  A    between atoms: _79  and  _82
REMARK   37  A    between atoms: _82  and  _83
REMARK   38  A    between atoms: _87  and  _88
REMARK   39  A    between atoms: _93  and  _95
REMARK   40  A    between atoms: _95  and  _96
REMARK   41  A    between atoms: _95  and  _98
REMARK   42  A    between atoms: _98  and  _99
REMARK   43  A    between atoms: _101  and  _103
REMARK   44  A    between atoms: _103  and  _104
REMARK   45  A    between atoms: _103  and  _106
REMARK   46  A    between atoms: _106  and  _107
REMARK   47  A    between atoms: _107  and  _108
REMARK   48  A    between atoms: _108  and  _109
REMARK   49  A    between atoms: _109  and  _110
REMARK   50  A    between atoms: _114  and  _116
REMARK   51  A    between atoms: _116  and  _117
REMARK   52  A    between atoms: _120  and  _122
REMARK   53  A    between atoms: _122  and  _123
REMARK   54  A    between atoms: _122  and  _125
REMARK   55  A    between atoms: _125  and  _126
REMARK   56  A    between atoms: _126  and  _127
REMARK   57  A    between atoms: _127  and  _128
REMARK   58  A    between atoms: _128  and  _129
REMARK   59  A    between atoms: _133  and  _135
REMARK   60  A    between atoms: _135  and  _136
REMARK   61  A    between atoms: _135  and  _138
REMARK   62  A    between atoms: _138  and  _139
REMARK   63  A    between atoms: _139  and  _140
REMARK   64  A    between atoms: _140  and  _141
REMARK   65  A    between atoms: _150  and  _152
REMARK   66  A    between atoms: _152  and  _153
REMARK   67  A    between atoms: _152  and  _155
REMARK   68  A    between atoms: _155  and  _156
REMARK   69  A    between atoms: _159  and  _161
REMARK   70  A    between atoms: _161  and  _162
REMARK   71  A    between atoms: _161  and  _164
REMARK   72  A    between atoms: _168  and  _169
REMARK   73  A    between atoms: _174  and  _176
REMARK   74  A    between atoms: _176  and  _177
REMARK   75  A    between atoms: _180  and  _182
REMARK   76  A    between atoms: _182  and  _183
REMARK   77  A    between atoms: _182  and  _185
REMARK   78  A    between atoms: _185  and  _186
REMARK   79  A    between atoms: _192  and  _194
REMARK   80  A    between atoms: _194  and  _195
REMARK   81  A    between atoms: _194  and  _197
REMARK   82  A    between atoms: _197  and  _198
REMARK   83  A    between atoms: _198  and  _199
REMARK   84  A    between atoms: _202  and  _204
REMARK   85  A    between atoms: _204  and  _205
REMARK   86  A    between atoms: _204  and  _207
REMARK   87  A    between atoms: _207  and  _208
REMARK   88  A    between atoms: _211  and  _213
REMARK   89  A    between atoms: _213  and  _214
REMARK   90  A    between atoms: _213  and  _216
REMARK   91  A    between atoms: _216  and  _217
REMARK   92  A    between atoms: _220  and  _222
REMARK   93  A    between atoms: _222  and  _223
REMARK   94  A    between atoms: _225  and  _227
REMARK   95  A    between atoms: _227  and  _228
REMARK   96  A    between atoms: _230  and  _232
REMARK   97  A    between atoms: _232  and  _233
REMARK   98  A    between atoms: _235  and  _237
REMARK   99  A    between atoms: _237  and  _238
REMARK  100  A    between atoms: _241  and  _243
REMARK  101  A    between atoms: _243  and  _244
REMARK  102  A    between atoms: _243  and  _246
REMARK  103  A    between atoms: _246  and  _247
REMARK  104  A    between atoms: _253  and  _255
REMARK  105  A    between atoms: _255  and  _256
REMARK  106  A    between atoms: _255  and  _258
REMARK  107  A    between atoms: _258  and  _259
REMARK  108  A    between atoms: _262  and  _264
REMARK  109  A    between atoms: _264  and  _265
REMARK  110  A    between atoms: _264  and  _267
REMARK  111  A    between atoms: _267  and  _268
REMARK  112  A    between atoms: _271  and  _273
REMARK  113  A    between atoms: _273  and  _274
REMARK  114  A    between atoms: _273  and  _276
REMARK  115  A    between atoms: _276  and  _277
REMARK  116  A    between atoms: _280  and  _282
REMARK  117  A    between atoms: _282  and  _283
REMARK  118  A    between atoms: _282  and  _285
REMARK  119  A    between atoms: _285  and  _286
REMARK  120  A    between atoms: _289  and  _291
REMARK  121  A    between atoms: _291  and  _292
REMARK  122  A    between atoms: _294  and  _296
REMARK  123  A    between atoms: _296  and  _297
REMARK  124  A    between atoms: _299  and  _301
REMARK  125  A    between atoms: _301  and  _302
REMARK  126  A    between atoms: _301  and  _304
REMARK  127  A    between atoms: _304  and  _305
REMARK  128  A    between atoms: _305  and  _306
REMARK  129  A    between atoms: _309  and  _311
REMARK  130  A    between atoms: _311  and  _312
REMARK  131  A    between atoms: _311  and  _314
REMARK  132  A    between atoms: _314  and  _315
REMARK  133  A    between atoms: _318  and  _320
REMARK  134  A    between atoms: _320  and  _321
REMARK  135  A    between atoms: _320  and  _323
REMARK  136  A    between atoms: _323  and  _324
REMARK  137  A    between atoms: _330  and  _332
REMARK  138  A    between atoms: _332  and  _333
REMARK  139  A    between atoms: _332  and  _335
REMARK  140  A    between atoms: _335  and  _336
REMARK  141  A    between atoms: _339  and  _341
REMARK  142  A    between atoms: _341  and  _342
REMARK  143  A    between atoms: _341  and  _344
REMARK  144  A    between atoms: _344  and  _345
REMARK  145  A    between atoms: _345  and  _346
REMARK  146  A    between atoms: _346  and  _347
REMARK  147  A    between atoms: _347  and  _348
REMARK  148  A    between atoms: _352  and  _354
REMARK  149  A    between atoms: _354  and  _355
REMARK  150  A    between atoms: _358  and  _360
REMARK  151  A    between atoms: _360  and  _361
REMARK  152  A    between atoms: _360  and  _363
REMARK  153  A    between atoms: _363  and  _364
REMARK  154  A    between atoms: _364  and  _365
REMARK  155  A    between atoms: _368  and  _370
REMARK  156  A    between atoms: _370  and  _371
REMARK  157  A    between atoms: _370  and  _373
REMARK  158  A    between atoms: _373  and  _374
REMARK  159  A    between atoms: _374  and  _375
REMARK  160  A    between atoms: _375  and  _376
REMARK  161  A    between atoms: _376  and  _377
REMARK  162  A    between atoms: _381  and  _383
REMARK  163  A    between atoms: _383  and  _384
REMARK  164  A    between atoms: _387  and  _389
REMARK  165  A    between atoms: _389  and  _390
REMARK  166  A    between atoms: _389  and  _392
REMARK  167  A    between atoms: _392  and  _393
REMARK  168  A    between atoms: _393  and  _394
REMARK  169  A    between atoms: _394  and  _395
REMARK  170  A    between atoms: _395  and  _396
REMARK  171  A    between atoms: _400  and  _402
REMARK  172  A    between atoms: _402  and  _403
REMARK  173  A    between atoms: _402  and  _405
REMARK  174  A    between atoms: _405  and  _406
REMARK  175  A    between atoms: _409  and  _411
REMARK  176  A    between atoms: _411  and  _412
REMARK  177  A    between atoms: _411  and  _414
REMARK  178  A    between atoms: _414  and  _415
REMARK  179  A    between atoms: _415  and  _416
REMARK  180  A    between atoms: _419  and  _421
REMARK  181  A    between atoms: _421  and  _422
REMARK  182  A    between atoms: _421  and  _424
REMARK  183  A    between atoms: _424  and  _425
REMARK  184  A    between atoms: _428  and  _430
REMARK  185  A    between atoms: _430  and  _431
REMARK  186  A    between atoms: _430  and  _433
REMARK  187  A    between atoms: _433  and  _434
REMARK  188  A    between atoms: _436  and  _438
REMARK  189  A    between atoms: _438  and  _439
REMARK  190  A    between atoms: _438  and  _441
REMARK  191  A    between atoms: _441  and  _442
REMARK  192  A    between atoms: _444  and  _446
REMARK  193  A    between atoms: _446  and  _447
REMARK  194  A    between atoms: _450  and  _452
REMARK  195  A    between atoms: _452  and  _453
REMARK  196  A    between atoms: _452  and  _455
REMARK  197  A    between atoms: _455  and  _456
REMARK  198  A    between atoms: _459  and  _461
REMARK  199  A    between atoms: _461  and  _462
REMARK  200  A    between atoms: _461  and  _464
REMARK  201  A    between atoms: _467  and  _469
REMARK  202  A    between atoms: _469  and  _470
REMARK  203  A    between atoms: _472  and  _474
REMARK  204  A    between atoms: _474  and  _475
REMARK  205  A    between atoms: _477  and  _479
REMARK  206  A    between atoms: _479  and  _480
REMARK  207  A    between atoms: _479  and  _482
REMARK  208  A    between atoms: _482  and  _483
REMARK  209  A    between atoms: _483  and  _484
REMARK  210  A    between atoms: _489  and  _491
REMARK  211  A    between atoms: _491  and  _492
REMARK  212  A    between atoms: _491  and  _494
REMARK  213  A    between atoms: _494  and  _495
REMARK  214  A    between atoms: _498  and  _500
REMARK  215  A    between atoms: _500  and  _501
REMARK  216  A    between atoms: _500  and  _503
REMARK  217  A    between atoms: _503  and  _504
REMARK  218  A    between atoms: _504  and  _505
REMARK  219  A    between atoms: _505  and  _506
REMARK  220  A    between atoms: _515  and  _517
REMARK  221  A    between atoms: _517  and  _518
REMARK  222  A    between atoms: _517  and  _520
REMARK  223  A    between atoms: _520  and  _521
REMARK  224  A    between atoms: _521  and  _522
REMARK  225  A    between atoms: _525  and  _526
REMARK  226  A    between atoms: _531  and  _533
REMARK  227  A    between atoms: _533  and  _534
REMARK  228  A    between atoms: _533  and  _536
REMARK  229  A    between atoms: _539  and  _541
REMARK  230  A    between atoms: _541  and  _542
REMARK  231  A    between atoms: _541  and  _544
REMARK  232  A    between atoms: _544  and  _545
REMARK  233  A    between atoms: _545  and  _546
REMARK  234  A    between atoms: _552  and  _553
REMARK  235  A    between atoms: _558  and  _560
REMARK  236  A    between atoms: _560  and  _561
REMARK  237  A    between atoms: _560  and  _563
REMARK  238  A    between atoms: _563  and  _564
REMARK  239  A    between atoms: _567  and  _569
REMARK  240  A    between atoms: _569  and  _570
REMARK  241  A    between atoms: _569  and  _572
REMARK  242  A    between atoms: _572  and  _573
REMARK  243  A    between atoms: _573  and  _574
REMARK  244  A    between atoms: _577  and  _579
REMARK  245  A    between atoms: _579  and  _580
REMARK  246  A    between atoms: _579  and  _582
REMARK  247  A    between atoms: _585  and  _587
REMARK  248  A    between atoms: _587  and  _588
REMARK  249  A    between atoms: _591  and  _593
REMARK  250  A    between atoms: _593  and  _594
REMARK  251  A    between atoms: _593  and  _596
REMARK  252  A    between atoms: _596  and  _597
REMARK  253  A    between atoms: _597  and  _598
REMARK  254  A    between atoms: _601  and  _603
REMARK  255  A    between atoms: _603  and  _604
REMARK  256  A    between atoms: _606  and  _608
REMARK  257  A    between atoms: _608  and  _609
REMARK  258  A    between atoms: _608  and  _611
REMARK  259  A    between atoms: _611  and  _612
REMARK                            x       y       z     vdW  Elec       q    Type
REMARK                         _______ _______ _______ _____ _____    ______ ____
ROOT
ATOM      1  C   ASP A   1       5.908  79.195  33.837  0.00  0.00    +0.239 C 
ATOM      2  O   ASP A   1       7.104  78.904  33.768  0.00  0.00    -0.274 OA
ATOM      3  N   THR A   2       5.228  79.661  32.793  0.00  0.00    -0.296 N 
ATOM      4  H   THR A   2       4.244  79.977  32.910  0.00  0.00    +0.150 HD
ENDROOT
BRANCH   1   5
ATOM      5  CA  ASP A   1       5.140  79.010  35.142  0.00  0.00    +0.156 C 
BRANCH   5   6
ATOM      6  N   ASP A   1       5.134  77.579  35.408  0.00  0.00    -0.238 NA
ATOM      7  H   ASP A   1       5.875  76.993  34.973  0.00  0.00    +0.142 HD
ENDBRANCH   5   6
BRANCH   5   8
ATOM      8  CB  ASP A   1       5.846  79.747  36.288  0.00  0.00    +0.140 C 
BRANCH   8   9
ATOM      9  CG  ASP A   1       5.778  81.264  36.153  0.00  0.00    +0.367 C 
ATOM     10  OD2 ASP A   1       5.826  81.948  37.192  0.00  0.00    -0.246 OA
ATOM     11  OD1 ASP A   1       5.683  81.782  35.022  0.00  0.00    -0.246 OA
ENDBRANCH   8   9
ENDBRANCH   5   8
ENDBRANCH   1   5
BRANCH   3  12
ATOM     12  CA  THR A   2       5.868  79.728  31.479  0.00  0.00    +0.164 C 
BRANCH  12  13
ATOM     13  C   THR A   2       6.789  80.932  31.340  0.00  0.00    +0.229 C 
ATOM     14  O   THR A   2       7.413  81.118  30.298  0.00  0.00    -0.286 OA
ENDBRANCH  12  13
BRANCH  12  15
ATOM     15  CB  THR A   2       4.831  79.758  30.329  0.00  0.00    +0.136 C 
ATOM     16  CG2 THR A   2       3.927  78.538  30.394  0.00  0.00    +0.034 C 
BRANCH  15  17
ATOM     17  OG1 THR A   2       4.036  80.944  30.437  0.00  0.00    -0.382 OA
ATOM     18  HG1 THR A   2       3.373  80.964  29.702  0.00  0.00    +0.210 HD
ENDBRANCH  15  17
ENDBRANCH  12  15
ENDBRANCH   3  12
TORSDOF 8
REMARK  Name = ../refined-set-2016/4jne/4jne_pocket.pdb
REMARK  259 active torsions:
REMARK  status: ('A' for Active; 'I' for Inactive)
REMARK    1  A    between atoms: _1  and  _3
REMARK    2  A    between atoms: _3  and  _4
REMARK    3  A    between atoms: _3  and  _6
REMARK    4  A    between atoms: _6  and  _7
REMARK    5  A    between atoms: _10  and  _12
REMARK    6  A    between atoms: _12  and  _13
REMARK    7  A    between atoms: _12  and  _15
REMARK    8  A    between atoms: _15  and  _16
REMARK    9  A    between atoms: _19  and  _21
REMARK   10  A    between atoms: _21  and  _22
REMARK   11  A    between atoms: _24  and  _26
REMARK   12  A    between atoms: _26  and  _27
REMARK   13  A    between atoms: _26  and  _29
REMARK   14  A    between atoms: _29  and  _30
REMARK   15  A    between atoms: _33  and  _35
REMARK   16  A    between atoms: _35  and  _36
REMARK   17  A    between atoms: _35  and  _38
REMARK   18  A    between atoms: _38  and  _39
REMARK   19  A    between atoms: _42  and  _44
REMARK   20  A    between atoms: _44  and  _45
REMARK   21  A    between atoms: _44  and  _47
REMARK   22  A    between atoms: _47  and  _48
REMARK   23  A    between atoms: _53  and  _55
REMARK   24  A    between atoms: _55  and  _56
REMARK   25  A    between atoms: _55  and  _58
REMARK   26  A    between atoms: _58  and  _59
REMARK   27  A    between atoms: _61  and  _63
REMARK   28  A    between atoms: _63  and  _64
REMARK   29  A    between atoms: _63  and  _66
REMARK   30  A    between atoms: _68  and  _70
REMARK   31  A    between atoms: _70  and  _71
REMARK   32  A    between atoms: _70  and  _73
REMARK   33  A    between atoms: _73  and  _74
REMARK   34  A    between atoms: _77  and  _79
REMARK   35  A    between atoms: _79  and  _80
REMARK   36  A    between atoms: _79  and  _82
REMARK   37  A    between atoms: _82  and  _83
REMARK   38  A    between atoms: _87  and  _88
REMARK   39  A    between atoms: _93  and  _95
REMARK   40  A    between atoms: _95  and  _96
REMARK   41  A    between atoms: _95  and  _98
REMARK   42  A    between atoms: _98  and  _99
REMARK   43  A    between atoms: _101  and  _103
REMARK   44  A    between atoms: _103  and  _104
REMARK   45  A    between atoms: _103  and  _106
REMARK   46  A    between atoms: _106  and  _107
REMARK   47  A    between atoms: _107  and  _108
REMARK   48  A    between atoms: _108  and  _109
REMARK   49  A    between atoms: _109  and  _110
REMARK   50  A    between atoms: _114  and  _116
REMARK   51  A    between atoms: _116  and  _117
REMARK   52  A    between atoms: _120  and  _122
REMARK   53  A    between atoms: _122  and  _123
REMARK   54  A    between atoms: _122  and  _125
REMARK   55  A    between atoms: _125  and  _126
REMARK   56  A    between atoms: _126  and  _127
REMARK   57  A    between atoms: _127  and  _128
REMARK   58  A    between atoms: _128  and  _129
REMARK   59  A    between atoms: _133  and  _135
REMARK   60  A    between atoms: _135  and  _136
REMARK   61  A    between atoms: _135  and  _138
REMARK   62  A    between atoms: _138  and  _139
REMARK   63  A    between atoms: _139  and  _140
REMARK   64  A    between atoms: _140  and  _141
REMARK   65  A    between atoms: _150  and  _152
REMARK   66  A    between atoms: _152  and  _153
REMARK   67  A    between atoms: _152  and  _155
REMARK   68  A    between atoms: _155  and  _156
REMARK   69  A    between atoms: _159  and  _161
REMARK   70  A    between atoms: _161  and  _162
REMARK   71  A    between atoms: _161  and  _164
REMARK   72  A    between atoms: _168  and  _169
REMARK   73  A    between atoms: _174  and  _176
REMARK   74  A    between atoms: _176  and  _177
REMARK   75  A    between atoms: _180  and  _182
REMARK   76  A    between atoms: _182  and  _183
REMARK   77  A    between atoms: _182  and  _185
REMARK   78  A    between atoms: _185  and  _186
REMARK   79  A    between atoms: _192  and  _194
REMARK   80  A    between atoms: _194  and  _195
REMARK   81  A    between atoms: _194  and  _197
REMARK   82  A    between atoms: _197  and  _198
REMARK   83  A    between atoms: _198  and  _199
REMARK   84  A    between atoms: _202  and  _204
REMARK   85  A    between atoms: _204  and  _205
REMARK   86  A    between atoms: _204  and  _207
REMARK   87  A    between atoms: _207  and  _208
REMARK   88  A    between atoms: _211  and  _213
REMARK   89  A    between atoms: _213  and  _214
REMARK   90  A    between atoms: _213  and  _216
REMARK   91  A    between atoms: _216  and  _217
REMARK   92  A    between atoms: _220  and  _222
REMARK   93  A    between atoms: _222  and  _223
REMARK   94  A    between atoms: _225  and  _227
REMARK   95  A    between atoms: _227  and  _228
REMARK   96  A    between atoms: _230  and  _232
REMARK   97  A    between atoms: _232  and  _233
REMARK   98  A    between atoms: _235  and  _237
REMARK   99  A    between atoms: _237  and  _238
REMARK  100  A    between atoms: _241  and  _243
REMARK  101  A    between atoms: _243  and  _244
REMARK  102  A    between atoms: _243  and  _246
REMARK  103  A    between atoms: _246  and  _247
REMARK  104  A    between atoms: _253  and  _255
REMARK  105  A    between atoms: _255  and  _256
REMARK  106  A    between atoms: _255  and  _258
REMARK  107  A    between atoms: _258  and  _259
REMARK  108  A    between atoms: _262  and  _264
REMARK  109  A    between atoms: _264  and  _265
REMARK  110  A    between atoms: _264  and  _267
REMARK  111  A    between atoms: _267  and  _268
REMARK  112  A    between atoms: _271  and  _273
REMARK  113  A    between atoms: _273  and  _274
REMARK  114  A    between atoms: _273  and  _276
REMARK  115  A    between atoms: _276  and  _277
REMARK  116  A    between atoms: _280  and  _282
REMARK  117  A    between atoms: _282  and  _283
REMARK  118  A    between atoms: _282  and  _285
REMARK  119  A    between atoms: _285  and  _286
REMARK  120  A    between atoms: _289  and  _291
REMARK  121  A    between atoms: _291  and  _292
REMARK  122  A    between atoms: _294  and  _296
REMARK  123  A    between atoms: _296  and  _297
REMARK  124  A    between atoms: _299  and  _301
REMARK  125  A    between atoms: _301  and  _302
REMARK  126  A    between atoms: _301  and  _304
REMARK  127  A    between atoms: _304  and  _305
REMARK  128  A    between atoms: _305  and  _306
REMARK  129  A    between atoms: _309  and  _311
REMARK  130  A    between atoms: _311  and  _312
REMARK  131  A    between atoms: _311  and  _314
REMARK  132  A    between atoms: _314  and  _315
REMARK  133  A    between atoms: _318  and  _320
REMARK  134  A    between atoms: _320  and  _321
REMARK  135  A    between atoms: _320  and  _323
REMARK  136  A    between atoms: _323  and  _324
REMARK  137  A    between atoms: _330  and  _332
REMARK  138  A    between atoms: _332  and  _333
REMARK  139  A    between atoms: _332  and  _335
REMARK  140  A    between atoms: _335  and  _336
REMARK  141  A    between atoms: _339  and  _341
REMARK  142  A    between atoms: _341  and  _342
REMARK  143  A    between atoms: _341  and  _344
REMARK  144  A    between atoms: _344  and  _345
REMARK  145  A    between atoms: _345  and  _346
REMARK  146  A    between atoms: _346  and  _347
REMARK  147  A    between atoms: _347  and  _348
REMARK  148  A    between atoms: _352  and  _354
REMARK  149  A    between atoms: _354  and  _355
REMARK  150  A    between atoms: _358  and  _360
REMARK  151  A    between atoms: _360  and  _361
REMARK  152  A    between atoms: _360  and  _363
REMARK  153  A    between atoms: _363  and  _364
REMARK  154  A    between atoms: _364  and  _365
REMARK  155  A    between atoms: _368  and  _370
REMARK  156  A    between atoms: _370  and  _371
REMARK  157  A    between atoms: _370  and  _373
REMARK  158  A    between atoms: _373  and  _374
REMARK  159  A    between atoms: _374  and  _375
REMARK  160  A    between atoms: _375  and  _376
REMARK  161  A    between atoms: _376  and  _377
REMARK  162  A    between atoms: _381  and  _383
REMARK  163  A    between atoms: _383  and  _384
REMARK  164  A    between atoms: _387  and  _389
REMARK  165  A    between atoms: _389  and  _390
REMARK  166  A    between atoms: _389  and  _392
REMARK  167  A    between atoms: _392  and  _393
REMARK  168  A    between atoms: _393  and  _394
REMARK  169  A    between atoms: _394  and  _395
REMARK  170  A    between atoms: _395  and  _396
REMARK  171  A    between atoms: _400  and  _402
REMARK  172  A    between atoms: _402  and  _403
REMARK  173  A    between atoms: _402  and  _405
REMARK  174  A    between atoms: _405  and  _406
REMARK  175  A    between atoms: _409  and  _411
REMARK  176  A    between atoms: _411  and  _412
REMARK  177  A    between atoms: _411  and  _414
REMARK  178  A    between atoms: _414  and  _415
REMARK  179  A    between atoms: _415  and  _416
REMARK  180  A    between atoms: _419  and  _421
REMARK  181  A    between atoms: _421  and  _422
REMARK  182  A    between atoms: _421  and  _424
REMARK  183  A    between atoms: _424  and  _425
REMARK  184  A    between atoms: _428  and  _430
REMARK  185  A    between atoms: _430  and  _431
REMARK  186  A    between atoms: _430  and  _433
REMARK  187  A    between atoms: _433  and  _434
REMARK  188  A    between atoms: _436  and  _438
REMARK  189  A    between atoms: _438  and  _439
REMARK  190  A    between atoms: _438  and  _441
REMARK  191  A    between atoms: _441  and  _442
REMARK  192  A    between atoms: _444  and  _446
REMARK  193  A    between atoms: _446  and  _447
REMARK  194  A    between atoms: _450  and  _452
REMARK  195  A    between atoms: _452  and  _453
REMARK  196  A    between atoms: _452  and  _455
REMARK  197  A    between atoms: _455  and  _456
REMARK  198  A    between atoms: _459  and  _461
REMARK  199  A    between atoms: _461  and  _462
REMARK  200  A    between atoms: _461  and  _464
REMARK  201  A    between atoms: _467  and  _469
REMARK  202  A    between atoms: _469  and  _470
REMARK  203  A    between atoms: _472  and  _474
REMARK  204  A    between atoms: _474  and  _475
REMARK  205  A    between atoms: _477  and  _479
REMARK  206  A    between atoms: _479  and  _480
REMARK  207  A    between atoms: _479  and  _482
REMARK  208  A    between atoms: _482  and  _483
REMARK  209  A    between atoms: _483  and  _484
REMARK  210  A    between atoms: _489  and  _491
REMARK  211  A    between atoms: _491  and  _492
REMARK  212  A    between atoms: _491  and  _494
REMARK  213  A    between atoms: _494  and  _495
REMARK  214  A    between atoms: _498  and  _500
REMARK  215  A    between atoms: _500  and  _501
REMARK  216  A    between atoms: _500  and  _503
REMARK  217  A    between atoms: _503  and  _504
REMARK  218  A    between atoms: _504  and  _505
REMARK  219  A    between atoms: _505  and  _506
REMARK  220  A    between atoms: _515  and  _517
REMARK  221  A    between atoms: _517  and  _518
REMARK  222  A    between atoms: _517  and  _520
REMARK  223  A    between atoms: _520  and  _521
REMARK  224  A    between atoms: _521  and  _522
REMARK  225  A    between atoms: _525  and  _526
REMARK  226  A    between atoms: _531  and  _533
REMARK  227  A    between atoms: _533  and  _534
REMARK  228  A    between atoms: _533  and  _536
REMARK  229  A    between atoms: _539  and  _541
REMARK  230  A    between atoms: _541  and  _542
REMARK  231  A    between atoms: _541  and  _544
REMARK  232  A    between atoms: _544  and  _545
REMARK  233  A    between atoms: _545  and  _546
REMARK  234  A    between atoms: _552  and  _553
REMARK  235  A    between atoms: _558  and  _560
REMARK  236  A    between atoms: _560  and  _561
REMARK  237  A    between atoms: _560  and  _563
REMARK  238  A    between atoms: _563  and  _564
REMARK  239  A    between atoms: _567  and  _569
REMARK  240  A    between atoms: _569  and  _570
REMARK  241  A    between atoms: _569  and  _572
REMARK  242  A    between atoms: _572  and  _573
REMARK  243  A    between atoms: _573  and  _574
REMARK  244  A    between atoms: _577  and  _579
REMARK  245  A    between atoms: _579  and  _580
REMARK  246  A    between atoms: _579  and  _582
REMARK  247  A    between atoms: _585  and  _587
REMARK  248  A    between atoms: _587  and  _588
REMARK  249  A    between atoms: _591  and  _593
REMARK  250  A    between atoms: _593  and  _594
REMARK  251  A    between atoms: _593  and  _596
REMARK  252  A    between atoms: _596  and  _597
REMARK  253  A    between atoms: _597  and  _598
REMARK  254  A    between atoms: _601  and  _603
REMARK  255  A    between atoms: _603  and  _604
REMARK  256  A    between atoms: _606  and  _608
REMARK  257  A    between atoms: _608  and  _609
REMARK  258  A    between atoms: _608  and  _611
REMARK  259  A    between atoms: _611  and  _612
REMARK                            x       y       z     vdW  Elec       q    Type
REMARK                         _______ _______ _______ _____ _____    ______ ____
ROOT
ATOM      1  C   GLU A   4      16.446  85.476  33.108  0.00  0.00    +0.241 C 
ATOM      2  N   ASP A   5      15.562  85.021  33.988  0.00  0.00    -0.297 N 
ATOM      3  H   ASP A   5      15.125  84.090  33.833  0.00  0.00    +0.150 HD
ATOM      4  O   GLU A   4      17.020  86.558  33.236  0.00  0.00    -0.273 OA
ENDROOT
BRANCH   2   5
ATOM      5  CA  ASP A   5      15.189  85.796  35.168  0.00  0.00    +0.160 C 
BRANCH   5   6
ATOM      6  C   ASP A   5      16.303  85.812  36.210  0.00  0.00    +0.241 C 
ATOM      7  O   ASP A   5      16.460  86.790  36.938  0.00  0.00    -0.273 OA
ATOM      8  N   PHE A   6      17.068  84.725  36.290  0.00  0.00    -0.297 N 
ATOM      9  H   PHE A   6      16.852  83.899  35.696  0.00  0.00    +0.150 HD
BRANCH   8  10
ATOM     10  CA  PHE A   6      18.205  84.681  37.202  0.00  0.00    +0.153 C 
BRANCH  10  11
ATOM     11  C   PHE A   6      19.268  85.650  36.698  0.00  0.00    +0.241 C 
ATOM     12  O   PHE A   6      19.869  86.390  37.484  0.00  0.00    -0.273 OA
ATOM     13  N   ASP A   7      19.506  85.636  35.386  0.00  0.00    -0.298 N 
ATOM     14  H   ASP A   7      18.984  84.970  34.782  0.00  0.00    +0.150 HD
BRANCH  13  15
ATOM     15  CA  ASP A   7      20.482  86.534  34.779  0.00  0.00    +0.148 C 
BRANCH  15  16
ATOM     16  C   ASP A   7      20.121  87.965  35.112  0.00  0.00    +0.227 C 
ATOM     17  O   ASP A   7      20.974  88.771  35.481  0.00  0.00    -0.286 OA
ENDBRANCH  15  16
BRANCH  15  18
ATOM     18  CB  ASP A   7      20.507  86.385  33.251  0.00  0.00    +0.142 C 
BRANCH  18  19
ATOM     19  CG  ASP A   7      21.038  85.036  32.796  0.00  0.00    +0.367 C 
ATOM     20  OD2 ASP A   7      21.520  84.261  33.645  0.00  0.00    -0.246 OA
ATOM     21  OD1 ASP A   7      20.984  84.755  31.578  0.00  0.00    -0.246 OA
ENDBRANCH  18  19
ENDBRANCH  15  18
ENDBRANCH  13  15
ENDBRANCH  10  11
BRANCH  10  22
ATOM     22  CB  PHE A   6      18.801  83.270  37.281  0.00  0.00    +0.055 C 
BRANCH  22  23
ATOM     23  CG  PHE A   6      17.948  82.275  38.029  0.00  0.00    -0.020 A 
ATOM     24  CD2 PHE A   6      18.430  81.657  39.174  0.00  0.00    -0.004 A 
ATOM     25  CE2 PHE A   6      17.664  80.732  39.858  0.00  0.00    -0.000 A 
ATOM     26  CZ  PHE A   6      16.393  80.416  39.400  0.00  0.00    -0.000 A 
ATOM     27  CE1 PHE A   6      15.905  81.022  38.258  0.00  0.00    -0.000 A 
ATOM     28  CD1 PHE A   6      16.680  81.944  37.579  0.00  0.00    -0.004 A 
ENDBRANCH  22  23
ENDBRANCH  10  22
ENDBRANCH   8  10
ENDBRANCH   5   6
BRANCH   5  29
ATOM     29  CB  ASP A   5      13.899  85.251  35.775  0.00  0.00    +0.143 C 
BRANCH  29  30
ATOM     30  CG  ASP A   5      12.744  85.285  34.794  0.00  0.00    +0.367 C 
ATOM     31  OD2 ASP A   5      12.132  84.224  34.554  0.00  0.00    -0.246 OA
ATOM     32  OD1 ASP A   5      12.468  86.372  34.247  0.00  0.00    -0.246 OA
ENDBRANCH  29  30
ENDBRANCH   5  29
ENDBRANCH   2   5
BRANCH   1  33
ATOM     33  CA  GLU A   4      16.711  84.582  31.895  0.00  0.00    +0.149 C 
BRANCH  33  36
ATOM     34  C   GLY A   3      17.471  82.715  33.264  0.00  0.00    +0.243 C 
ATOM     35  O   GLY A   3      18.297  83.423  33.841  0.00  0.00    -0.273 OA
ATOM     36  N   GLU A   4      16.691  83.172  32.284  0.00  0.00    -0.297 N 
ATOM     37  H   GLU A   4      16.057  82.514  31.787  0.00  0.00    +0.150 HD
BRANCH  34  38
ATOM     38  CA  GLY A   3      17.335  81.249  33.638  0.00  0.00    +0.176 C 
BRANCH  38  41
ATOM     39  C   GLY A   2      14.944  81.269  34.084  0.00  0.00    +0.243 C 
ATOM     40  O   GLY A   2      15.010  82.335  34.685  0.00  0.00    -0.273 OA
ATOM     41  N   GLY A   3      16.001  80.687  33.524  0.00  0.00    -0.295 N 
ATOM     42  H   GLY A   3      15.868  79.805  32.990  0.00  0.00    +0.150 HD
BRANCH  39  43
ATOM     43  CA  GLY A   2      13.616  80.547  33.941  0.00  0.00    +0.176 C 
BRANCH  43  45
ATOM     44  C   LEU A   1      11.271  80.792  34.528  0.00  0.00    +0.238 C 
ATOM     45  N   GLY A   2      12.490  81.319  34.450  0.00  0.00    -0.296 N 
ATOM     46  H   GLY A   2      12.642  82.301  34.758  0.00  0.00    +0.150 HD
ATOM     47  O   LEU A   1      11.026  79.632  34.209  0.00  0.00    -0.274 OA
BRANCH  44  48
ATOM     48  CA  LEU A   1      10.151  81.705  35.005  0.00  0.00    +0.145 C 
BRANCH  48  49
ATOM     49  N   LEU A   1       9.263  81.857  33.870  0.00  0.00    -0.238 NA
ATOM     50  H   LEU A   1       9.141  81.046  33.231  0.00  0.00    +0.142 HD
ENDBRANCH  48  49
BRANCH  48  51
ATOM     51  CB  LEU A   1       9.406  81.051  36.175  0.00  0.00    +0.026 C 
BRANCH  51  52
ATOM     52  CG  LEU A   1      10.278  80.593  37.345  0.00  0.00    +0.002 C 
ATOM     53  CD2 LEU A   1       9.458  79.828  38.379  0.00  0.00    +0.000 C 
ATOM     54  CD1 LEU A   1      10.990  81.781  37.979  0.00  0.00    +0.000 C 
ENDBRANCH  51  52
ENDBRANCH  48  51
ENDBRANCH  44  48
ENDBRANCH  43  45
ENDBRANCH  39  43
ENDBRANCH  38  41
ENDBRANCH  34  38
ENDBRANCH  33  36
BRANCH  33  55
ATOM     55  CB  GLU A   4      15.658  84.877  30.815  0.00  0.00    +0.041 C 
BRANCH  55  56
ATOM     56  CG  GLU A   4      16.000  84.355  29.430  0.00  0.00    +0.116 C 
BRANCH  56  57
ATOM     57  CD  GLU A   4      17.113  85.147  28.765  0.00  0.00    +0.365 C 
ATOM     58  OE2 GLU A   4      17.107  86.390  28.862  0.00  0.00    -0.246 OA
ATOM     59  OE1 GLU A   4      18.000  84.525  28.156  0.00  0.00    -0.246 OA
ENDBRANCH  56  57
ENDBRANCH  55  56
ENDBRANCH  33  55
ENDBRANCH   1  33
TORSDOF 25
REMARK  Name = ../refined-set-2016/4jne/4jne_pocket.pdb
REMARK  259 active torsions:
REMARK  status: ('A' for Active; 'I' for Inactive)
REMARK    1  A    between atoms: _1  and  _3
REMARK    2  A    between atoms: _3  and  _4
REMARK    3  A    between atoms: _3  and  _6
REMARK    4  A    between atoms: _6  and  _7
REMARK    5  A    between atoms: _10  and  _12
REMARK    6  A    between atoms: _12  and  _13
REMARK    7  A    between atoms: _12  and  _15
REMARK    8  A    between atoms: _15  and  _16
REMARK    9  A    between atoms: _19  and  _21
REMARK   10  A    between atoms: _21  and  _22
REMARK   11  A    between atoms: _24  and  _26
REMARK   12  A    between atoms: _26  and  _27
REMARK   13  A    between atoms: _26  and  _29
REMARK   14  A    between atoms: _29  and  _30
REMARK   15  A    between atoms: _33  and  _35
REMARK   16  A    between atoms: _35  and  _36
REMARK   17  A    between atoms: _35  and  _38
REMARK   18  A    between atoms: _38  and  _39
REMARK   19  A    between atoms: _42  and  _44
REMARK   20  A    between atoms: _44  and  _45
REMARK   21  A    between atoms: _44  and  _47
REMARK   22  A    between atoms: _47  and  _48
REMARK   23  A    between atoms: _53  and  _55
REMARK   24  A    between atoms: _55  and  _56
REMARK   25  A    between atoms: _55  and  _58
REMARK   26  A    between atoms: _58  and  _59
REMARK   27  A    between atoms: _61  and  _63
REMARK   28  A    between atoms: _63  and  _64
REMARK   29  A    between atoms: _63  and  _66
REMARK   30  A    between atoms: _68  and  _70
REMARK   31  A    between atoms: _70  and  _71
REMARK   32  A    between atoms: _70  and  _73
REMARK   33  A    between atoms: _73  and  _74
REMARK   34  A    between atoms: _77  and  _79
REMARK   35  A    between atoms: _79  and  _80
REMARK   36  A    between atoms: _79  and  _82
REMARK   37  A    between atoms: _82  and  _83
REMARK   38  A    between atoms: _87  and  _88
REMARK   39  A    between atoms: _93  and  _95
REMARK   40  A    between atoms: _95  and  _96
REMARK   41  A    between atoms: _95  and  _98
REMARK   42  A    between atoms: _98  and  _99
REMARK   43  A    between atoms: _101  and  _103
REMARK   44  A    between atoms: _103  and  _104
REMARK   45  A    between atoms: _103  and  _106
REMARK   46  A    between atoms: _106  and  _107
REMARK   47  A    between atoms: _107  and  _108
REMARK   48  A    between atoms: _108  and  _109
REMARK   49  A    between atoms: _109  and  _110
REMARK   50  A    between atoms: _114  and  _116
REMARK   51  A    between atoms: _116  and  _117
REMARK   52  A    between atoms: _120  and  _122
REMARK   53  A    between atoms: _122  and  _123
REMARK   54  A    between atoms: _122  and  _125
REMARK   55  A    between atoms: _125  and  _126
REMARK   56  A    between atoms: _126  and  _127
REMARK   57  A    between atoms: _127  and  _128
REMARK   58  A    between atoms: _128  and  _129
REMARK   59  A    between atoms: _133  and  _135
REMARK   60  A    between atoms: _135  and  _136
REMARK   61  A    between atoms: _135  and  _138
REMARK   62  A    between atoms: _138  and  _139
REMARK   63  A    between atoms: _139  and  _140
REMARK   64  A    between atoms: _140  and  _141
REMARK   65  A    between atoms: _150  and  _152
REMARK   66  A    between atoms: _152  and  _153
REMARK   67  A    between atoms: _152  and  _155
REMARK   68  A    between atoms: _155  and  _156
REMARK   69  A    between atoms: _159  and  _161
REMARK   70  A    between atoms: _161  and  _162
REMARK   71  A    between atoms: _161  and  _164
REMARK   72  A    between atoms: _168  and  _169
REMARK   73  A    between atoms: _174  and  _176
REMARK   74  A    between atoms: _176  and  _177
REMARK   75  A    between atoms: _180  and  _182
REMARK   76  A    between atoms: _182  and  _183
REMARK   77  A    between atoms: _182  and  _185
REMARK   78  A    between atoms: _185  and  _186
REMARK   79  A    between atoms: _192  and  _194
REMARK   80  A    between atoms: _194  and  _195
REMARK   81  A    between atoms: _194  and  _197
REMARK   82  A    between atoms: _197  and  _198
REMARK   83  A    between atoms: _198  and  _199
REMARK   84  A    between atoms: _202  and  _204
REMARK   85  A    between atoms: _204  and  _205
REMARK   86  A    between atoms: _204  and  _207
REMARK   87  A    between atoms: _207  and  _208
REMARK   88  A    between atoms: _211  and  _213
REMARK   89  A    between atoms: _213  and  _214
REMARK   90  A    between atoms: _213  and  _216
REMARK   91  A    between atoms: _216  and  _217
REMARK   92  A    between atoms: _220  and  _222
REMARK   93  A    between atoms: _222  and  _223
REMARK   94  A    between atoms: _225  and  _227
REMARK   95  A    between atoms: _227  and  _228
REMARK   96  A    between atoms: _230  and  _232
REMARK   97  A    between atoms: _232  and  _233
REMARK   98  A    between atoms: _235  and  _237
REMARK   99  A    between atoms: _237  and  _238
REMARK  100  A    between atoms: _241  and  _243
REMARK  101  A    between atoms: _243  and  _244
REMARK  102  A    between atoms: _243  and  _246
REMARK  103  A    between atoms: _246  and  _247
REMARK  104  A    between atoms: _253  and  _255
REMARK  105  A    between atoms: _255  and  _256
REMARK  106  A    between atoms: _255  and  _258
REMARK  107  A    between atoms: _258  and  _259
REMARK  108  A    between atoms: _262  and  _264
REMARK  109  A    between atoms: _264  and  _265
REMARK  110  A    between atoms: _264  and  _267
REMARK  111  A    between atoms: _267  and  _268
REMARK  112  A    between atoms: _271  and  _273
REMARK  113  A    between atoms: _273  and  _274
REMARK  114  A    between atoms: _273  and  _276
REMARK  115  A    between atoms: _276  and  _277
REMARK  116  A    between atoms: _280  and  _282
REMARK  117  A    between atoms: _282  and  _283
REMARK  118  A    between atoms: _282  and  _285
REMARK  119  A    between atoms: _285  and  _286
REMARK  120  A    between atoms: _289  and  _291
REMARK  121  A    between atoms: _291  and  _292
REMARK  122  A    between atoms: _294  and  _296
REMARK  123  A    between atoms: _296  and  _297
REMARK  124  A    between atoms: _299  and  _301
REMARK  125  A    between atoms: _301  and  _302
REMARK  126  A    between atoms: _301  and  _304
REMARK  127  A    between atoms: _304  and  _305
REMARK  128  A    between atoms: _305  and  _306
REMARK  129  A    between atoms: _309  and  _311
REMARK  130  A    between atoms: _311  and  _312
REMARK  131  A    between atoms: _311  and  _314
REMARK  132  A    between atoms: _314  and  _315
REMARK  133  A    between atoms: _318  and  _320
REMARK  134  A    between atoms: _320  and  _321
REMARK  135  A    between atoms: _320  and  _323
REMARK  136  A    between atoms: _323  and  _324
REMARK  137  A    between atoms: _330  and  _332
REMARK  138  A    between atoms: _332  and  _333
REMARK  139  A    between atoms: _332  and  _335
REMARK  140  A    between atoms: _335  and  _336
REMARK  141  A    between atoms: _339  and  _341
REMARK  142  A    between atoms: _341  and  _342
REMARK  143  A    between atoms: _341  and  _344
REMARK  144  A    between atoms: _344  and  _345
REMARK  145  A    between atoms: _345  and  _346
REMARK  146  A    between atoms: _346  and  _347
REMARK  147  A    between atoms: _347  and  _348
REMARK  148  A    between atoms: _352  and  _354
REMARK  149  A    between atoms: _354  and  _355
REMARK  150  A    between atoms: _358  and  _360
REMARK  151  A    between atoms: _360  and  _361
REMARK  152  A    between atoms: _360  and  _363
REMARK  153  A    between atoms: _363  and  _364
REMARK  154  A    between atoms: _364  and  _365
REMARK  155  A    between atoms: _368  and  _370
REMARK  156  A    between atoms: _370  and  _371
REMARK  157  A    between atoms: _370  and  _373
REMARK  158  A    between atoms: _373  and  _374
REMARK  159  A    between atoms: _374  and  _375
REMARK  160  A    between atoms: _375  and  _376
REMARK  161  A    between atoms: _376  and  _377
REMARK  162  A    between atoms: _381  and  _383
REMARK  163  A    between atoms: _383  and  _384
REMARK  164  A    between atoms: _387  and  _389
REMARK  165  A    between atoms: _389  and  _390
REMARK  166  A    between atoms: _389  and  _392
REMARK  167  A    between atoms: _392  and  _393
REMARK  168  A    between atoms: _393  and  _394
REMARK  169  A    between atoms: _394  and  _395
REMARK  170  A    between atoms: _395  and  _396
REMARK  171  A    between atoms: _400  and  _402
REMARK  172  A    between atoms: _402  and  _403
REMARK  173  A    between atoms: _402  and  _405
REMARK  174  A    between atoms: _405  and  _406
REMARK  175  A    between atoms: _409  and  _411
REMARK  176  A    between atoms: _411  and  _412
REMARK  177  A    between atoms: _411  and  _414
REMARK  178  A    between atoms: _414  and  _415
REMARK  179  A    between atoms: _415  and  _416
REMARK  180  A    between atoms: _419  and  _421
REMARK  181  A    between atoms: _421  and  _422
REMARK  182  A    between atoms: _421  and  _424
REMARK  183  A    between atoms: _424  and  _425
REMARK  184  A    between atoms: _428  and  _430
REMARK  185  A    between atoms: _430  and  _431
REMARK  186  A    between atoms: _430  and  _433
REMARK  187  A    between atoms: _433  and  _434
REMARK  188  A    between atoms: _436  and  _438
REMARK  189  A    between atoms: _438  and  _439
REMARK  190  A    between atoms: _438  and  _441
REMARK  191  A    between atoms: _441  and  _442
REMARK  192  A    between atoms: _444  and  _446
REMARK  193  A    between atoms: _446  and  _447
REMARK  194  A    between atoms: _450  and  _452
REMARK  195  A    between atoms: _452  and  _453
REMARK  196  A    between atoms: _452  and  _455
REMARK  197  A    between atoms: _455  and  _456
REMARK  198  A    between atoms: _459  and  _461
REMARK  199  A    between atoms: _461  and  _462
REMARK  200  A    between atoms: _461  and  _464
REMARK  201  A    between atoms: _467  and  _469
REMARK  202  A    between atoms: _469  and  _470
REMARK  203  A    between atoms: _472  and  _474
REMARK  204  A    between atoms: _474  and  _475
REMARK  205  A    between atoms: _477  and  _479
REMARK  206  A    between atoms: _479  and  _480
REMARK  207  A    between atoms: _479  and  _482
REMARK  208  A    between atoms: _482  and  _483
REMARK  209  A    between atoms: _483  and  _484
REMARK  210  A    between atoms: _489  and  _491
REMARK  211  A    between atoms: _491  and  _492
REMARK  212  A    between atoms: _491  and  _494
REMARK  213  A    between atoms: _494  and  _495
REMARK  214  A    between atoms: _498  and  _500
REMARK  215  A    between atoms: _500  and  _501
REMARK  216  A    between atoms: _500  and  _503
REMARK  217  A    between atoms: _503  and  _504
REMARK  218  A    between atoms: _504  and  _505
REMARK  219  A    between atoms: _505  and  _506
REMARK  220  A    between atoms: _515  and  _517
REMARK  221  A    between atoms: _517  and  _518
REMARK  222  A    between atoms: _517  and  _520
REMARK  223  A    between atoms: _520  and  _521
REMARK  224  A    between atoms: _521  and  _522
REMARK  225  A    between atoms: _525  and  _526
REMARK  226  A    between atoms: _531  and  _533
REMARK  227  A    between atoms: _533  and  _534
REMARK  228  A    between atoms: _533  and  _536
REMARK  229  A    between atoms: _539  and  _541
REMARK  230  A    between atoms: _541  and  _542
REMARK  231  A    between atoms: _541  and  _544
REMARK  232  A    between atoms: _544  and  _545
REMARK  233  A    between atoms: _545  and  _546
REMARK  234  A    between atoms: _552  and  _553
REMARK  235  A    between atoms: _558  and  _560
REMARK  236  A    between atoms: _560  and  _561
REMARK  237  A    between atoms: _560  and  _563
REMARK  238  A    between atoms: _563  and  _564
REMARK  239  A    between atoms: _567  and  _569
REMARK  240  A    between atoms: _569  and  _570
REMARK  241  A    between atoms: _569  and  _572
REMARK  242  A    between atoms: _572  and  _573
REMARK  243  A    between atoms: _573  and  _574
REMARK  244  A    between atoms: _577  and  _579
REMARK  245  A    between atoms: _579  and  _580
REMARK  246  A    between atoms: _579  and  _582
REMARK  247  A    between atoms: _585  and  _587
REMARK  248  A    between atoms: _587  and  _588
REMARK  249  A    between atoms: _591  and  _593
REMARK  250  A    between atoms: _593  and  _594
REMARK  251  A    between atoms: _593  and  _596
REMARK  252  A    between atoms: _596  and  _597
REMARK  253  A    between atoms: _597  and  _598
REMARK  254  A    between atoms: _601  and  _603
REMARK  255  A    between atoms: _603  and  _604
REMARK  256  A    between atoms: _606  and  _608
REMARK  257  A    between atoms: _608  and  _609
REMARK  258  A    between atoms: _608  and  _611
REMARK  259  A    between atoms: _611  and  _612
REMARK                            x       y       z     vdW  Elec       q    Type
REMARK                         _______ _______ _______ _____ _____    ______ ____
ROOT
ATOM      1  CG  LYS A   1      22.527  89.160  28.556  0.00  0.00    -0.000 C 
ENDROOT
BRANCH   1   2
ATOM      2  CB  LYS A   1      23.346  90.411  28.882  0.00  0.00    +0.025 C 
BRANCH   2   3
ATOM      3  CA  LYS A   1      24.339  90.240  30.033  0.00  0.00    +0.133 C 
BRANCH   3   4
ATOM      4  N   LYS A   1      25.234  91.398  30.095  0.00  0.00    -0.239 NA
ATOM      5  H   LYS A   1      25.122  92.161  29.397  0.00  0.00    +0.142 HD
ENDBRANCH   3   4
BRANCH   3   6
ATOM      6  C   LYS A   1      25.132  88.951  29.828  0.00  0.00    +0.224 C 
ATOM      7  O   LYS A   1      24.910  87.946  30.500  0.00  0.00    -0.287 OA
ENDBRANCH   3   6
ENDBRANCH   2   3
ENDBRANCH   1   2
BRANCH   1   8
ATOM      8  CD  LYS A   1      21.225  89.126  29.342  0.00  0.00    -0.024 C 
BRANCH   8   9
ATOM      9  CE  LYS A   1      20.363  87.917  28.976  0.00  0.00    -0.086 C 
BRANCH   9  10
ATOM     10  NZ  LYS A   1      20.835  86.667  29.638  0.00  0.00    +0.380 N 
ATOM     11  HZ1 LYS A   1      20.800  86.788  30.670  0.00  0.00    -0.089 HD
ATOM     12  HZ2 LYS A   1      20.220  85.876  29.360  0.00  0.00    -0.089 HD
ATOM     13  HZ3 LYS A   1      21.813  86.468  29.344  0.00  0.00    -0.089 HD
ENDBRANCH   9  10
ENDBRANCH   8   9
ENDBRANCH   1   8
TORSDOF 7
REMARK  Name = ../refined-set-2016/4jne/4jne_pocket.pdb
REMARK  259 active torsions:
REMARK  status: ('A' for Active; 'I' for Inactive)
REMARK    1  A    between atoms: _1  and  _3
REMARK    2  A    between atoms: _3  and  _4
REMARK    3  A    between atoms: _3  and  _6
REMARK    4  A    between atoms: _6  and  _7
REMARK    5  A    between atoms: _10  and  _12
REMARK    6  A    between atoms: _12  and  _13
REMARK    7  A    between atoms: _12  and  _15
REMARK    8  A    between atoms: _15  and  _16
REMARK    9  A    between atoms: _19  and  _21
REMARK   10  A    between atoms: _21  and  _22
REMARK   11  A    between atoms: _24  and  _26
REMARK   12  A    between atoms: _26  and  _27
REMARK   13  A    between atoms: _26  and  _29
REMARK   14  A    between atoms: _29  and  _30
REMARK   15  A    between atoms: _33  and  _35
REMARK   16  A    between atoms: _35  and  _36
REMARK   17  A    between atoms: _35  and  _38
REMARK   18  A    between atoms: _38  and  _39
REMARK   19  A    between atoms: _42  and  _44
REMARK   20  A    between atoms: _44  and  _45
REMARK   21  A    between atoms: _44  and  _47
REMARK   22  A    between atoms: _47  and  _48
REMARK   23  A    between atoms: _53  and  _55
REMARK   24  A    between atoms: _55  and  _56
REMARK   25  A    between atoms: _55  and  _58
REMARK   26  A    between atoms: _58  and  _59
REMARK   27  A    between atoms: _61  and  _63
REMARK   28  A    between atoms: _63  and  _64
REMARK   29  A    between atoms: _63  and  _66
REMARK   30  A    between atoms: _68  and  _70
REMARK   31  A    between atoms: _70  and  _71
REMARK   32  A    between atoms: _70  and  _73
REMARK   33  A    between atoms: _73  and  _74
REMARK   34  A    between atoms: _77  and  _79
REMARK   35  A    between atoms: _79  and  _80
REMARK   36  A    between atoms: _79  and  _82
REMARK   37  A    between atoms: _82  and  _83
REMARK   38  A    between atoms: _87  and  _88
REMARK   39  A    between atoms: _93  and  _95
REMARK   40  A    between atoms: _95  and  _96
REMARK   41  A    between atoms: _95  and  _98
REMARK   42  A    between atoms: _98  and  _99
REMARK   43  A    between atoms: _101  and  _103
REMARK   44  A    between atoms: _103  and  _104
REMARK   45  A    between atoms: _103  and  _106
REMARK   46  A    between atoms: _106  and  _107
REMARK   47  A    between atoms: _107  and  _108
REMARK   48  A    between atoms: _108  and  _109
REMARK   49  A    between atoms: _109  and  _110
REMARK   50  A    between atoms: _114  and  _116
REMARK   51  A    between atoms: _116  and  _117
REMARK   52  A    between atoms: _120  and  _122
REMARK   53  A    between atoms: _122  and  _123
REMARK   54  A    between atoms: _122  and  _125
REMARK   55  A    between atoms: _125  and  _126
REMARK   56  A    between atoms: _126  and  _127
REMARK   57  A    between atoms: _127  and  _128
REMARK   58  A    between atoms: _128  and  _129
REMARK   59  A    between atoms: _133  and  _135
REMARK   60  A    between atoms: _135  and  _136
REMARK   61  A    between atoms: _135  and  _138
REMARK   62  A    between atoms: _138  and  _139
REMARK   63  A    between atoms: _139  and  _140
REMARK   64  A    between atoms: _140  and  _141
REMARK   65  A    between atoms: _150  and  _152
REMARK   66  A    between atoms: _152  and  _153
REMARK   67  A    between atoms: _152  and  _155
REMARK   68  A    between atoms: _155  and  _156
REMARK   69  A    between atoms: _159  and  _161
REMARK   70  A    between atoms: _161  and  _162
REMARK   71  A    between atoms: _161  and  _164
REMARK   72  A    between atoms: _168  and  _169
REMARK   73  A    between atoms: _174  and  _176
REMARK   74  A    between atoms: _176  and  _177
REMARK   75  A    between atoms: _180  and  _182
REMARK   76  A    between atoms: _182  and  _183
REMARK   77  A    between atoms: _182  and  _185
REMARK   78  A    between atoms: _185  and  _186
REMARK   79  A    between atoms: _192  and  _194
REMARK   80  A    between atoms: _194  and  _195
REMARK   81  A    between atoms: _194  and  _197
REMARK   82  A    between atoms: _197  and  _198
REMARK   83  A    between atoms: _198  and  _199
REMARK   84  A    between atoms: _202  and  _204
REMARK   85  A    between atoms: _204  and  _205
REMARK   86  A    between atoms: _204  and  _207
REMARK   87  A    between atoms: _207  and  _208
REMARK   88  A    between atoms: _211  and  _213
REMARK   89  A    between atoms: _213  and  _214
REMARK   90  A    between atoms: _213  and  _216
REMARK   91  A    between atoms: _216  and  _217
REMARK   92  A    between atoms: _220  and  _222
REMARK   93  A    between atoms: _222  and  _223
REMARK   94  A    between atoms: _225  and  _227
REMARK   95  A    between atoms: _227  and  _228
REMARK   96  A    between atoms: _230  and  _232
REMARK   97  A    between atoms: _232  and  _233
REMARK   98  A    between atoms: _235  and  _237
REMARK   99  A    between atoms: _237  and  _238
REMARK  100  A    between atoms: _241  and  _243
REMARK  101  A    between atoms: _243  and  _244
REMARK  102  A    between atoms: _243  and  _246
REMARK  103  A    between atoms: _246  and  _247
REMARK  104  A    between atoms: _253  and  _255
REMARK  105  A    between atoms: _255  and  _256
REMARK  106  A    between atoms: _255  and  _258
REMARK  107  A    between atoms: _258  and  _259
REMARK  108  A    between atoms: _262  and  _264
REMARK  109  A    between atoms: _264  and  _265
REMARK  110  A    between atoms: _264  and  _267
REMARK  111  A    between atoms: _267  and  _268
REMARK  112  A    between atoms: _271  and  _273
REMARK  113  A    between atoms: _273  and  _274
REMARK  114  A    between atoms: _273  and  _276
REMARK  115  A    between atoms: _276  and  _277
REMARK  116  A    between atoms: _280  and  _282
REMARK  117  A    between atoms: _282  and  _283
REMARK  118  A    between atoms: _282  and  _285
REMARK  119  A    between atoms: _285  and  _286
REMARK  120  A    between atoms: _289  and  _291
REMARK  121  A    between atoms: _291  and  _292
REMARK  122  A    between atoms: _294  and  _296
REMARK  123  A    between atoms: _296  and  _297
REMARK  124  A    between atoms: _299  and  _301
REMARK  125  A    between atoms: _301  and  _302
REMARK  126  A    between atoms: _301  and  _304
REMARK  127  A    between atoms: _304  and  _305
REMARK  128  A    between atoms: _305  and  _306
REMARK  129  A    between atoms: _309  and  _311
REMARK  130  A    between atoms: _311  and  _312
REMARK  131  A    between atoms: _311  and  _314
REMARK  132  A    between atoms: _314  and  _315
REMARK  133  A    between atoms: _318  and  _320
REMARK  134  A    between atoms: _320  and  _321
REMARK  135  A    between atoms: _320  and  _323
REMARK  136  A    between atoms: _323  and  _324
REMARK  137  A    between atoms: _330  and  _332
REMARK  138  A    between atoms: _332  and  _333
REMARK  139  A    between atoms: _332  and  _335
REMARK  140  A    between atoms: _335  and  _336
REMARK  141  A    between atoms: _339  and  _341
REMARK  142  A    between atoms: _341  and  _342
REMARK  143  A    between atoms: _341  and  _344
REMARK  144  A    between atoms: _344  and  _345
REMARK  145  A    between atoms: _345  and  _346
REMARK  146  A    between atoms: _346  and  _347
REMARK  147  A    between atoms: _347  and  _348
REMARK  148  A    between atoms: _352  and  _354
REMARK  149  A    between atoms: _354  and  _355
REMARK  150  A    between atoms: _358  and  _360
REMARK  151  A    between atoms: _360  and  _361
REMARK  152  A    between atoms: _360  and  _363
REMARK  153  A    between atoms: _363  and  _364
REMARK  154  A    between atoms: _364  and  _365
REMARK  155  A    between atoms: _368  and  _370
REMARK  156  A    between atoms: _370  and  _371
REMARK  157  A    between atoms: _370  and  _373
REMARK  158  A    between atoms: _373  and  _374
REMARK  159  A    between atoms: _374  and  _375
REMARK  160  A    between atoms: _375  and  _376
REMARK  161  A    between atoms: _376  and  _377
REMARK  162  A    between atoms: _381  and  _383
REMARK  163  A    between atoms: _383  and  _384
REMARK  164  A    between atoms: _387  and  _389
REMARK  165  A    between atoms: _389  and  _390
REMARK  166  A    between atoms: _389  and  _392
REMARK  167  A    between atoms: _392  and  _393
REMARK  168  A    between atoms: _393  and  _394
REMARK  169  A    between atoms: _394  and  _395
REMARK  170  A    between atoms: _395  and  _396
REMARK  171  A    between atoms: _400  and  _402
REMARK  172  A    between atoms: _402  and  _403
REMARK  173  A    between atoms: _402  and  _405
REMARK  174  A    between atoms: _405  and  _406
REMARK  175  A    between atoms: _409  and  _411
REMARK  176  A    between atoms: _411  and  _412
REMARK  177  A    between atoms: _411  and  _414
REMARK  178  A    between atoms: _414  and  _415
REMARK  179  A    between atoms: _415  and  _416
REMARK  180  A    between atoms: _419  and  _421
REMARK  181  A    between atoms: _421  and  _422
REMARK  182  A    between atoms: _421  and  _424
REMARK  183  A    between atoms: _424  and  _425
REMARK  184  A    between atoms: _428  and  _430
REMARK  185  A    between atoms: _430  and  _431
REMARK  186  A    between atoms: _430  and  _433
REMARK  187  A    between atoms: _433  and  _434
REMARK  188  A    between atoms: _436  and  _438
REMARK  189  A    between atoms: _438  and  _439
REMARK  190  A    between atoms: _438  and  _441
REMARK  191  A    between atoms: _441  and  _442
REMARK  192  A    between atoms: _444  and  _446
REMARK  193  A    between atoms: _446  and  _447
REMARK  194  A    between atoms: _450  and  _452
REMARK  195  A    between atoms: _452  and  _453
REMARK  196  A    between atoms: _452  and  _455
REMARK  197  A    between atoms: _455  and  _456
REMARK  198  A    between atoms: _459  and  _461
REMARK  199  A    between atoms: _461  and  _462
REMARK  200  A    between atoms: _461  and  _464
REMARK  201  A    between atoms: _467  and  _469
REMARK  202  A    between atoms: _469  and  _470
REMARK  203  A    between atoms: _472  and  _474
REMARK  204  A    between atoms: _474  and  _475
REMARK  205  A    between atoms: _477  and  _479
REMARK  206  A    between atoms: _479  and  _480
REMARK  207  A    between atoms: _479  and  _482
REMARK  208  A    between atoms: _482  and  _483
REMARK  209  A    between atoms: _483  and  _484
REMARK  210  A    between atoms: _489  and  _491
REMARK  211  A    between atoms: _491  and  _492
REMARK  212  A    between atoms: _491  and  _494
REMARK  213  A    between atoms: _494  and  _495
REMARK  214  A    between atoms: _498  and  _500
REMARK  215  A    between atoms: _500  and  _501
REMARK  216  A    between atoms: _500  and  _503
REMARK  217  A    between atoms: _503  and  _504
REMARK  218  A    between atoms: _504  and  _505
REMARK  219  A    between atoms: _505  and  _506
REMARK  220  A    between atoms: _515  and  _517
REMARK  221  A    between atoms: _517  and  _518
REMARK  222  A    between atoms: _517  and  _520
REMARK  223  A    between atoms: _520  and  _521
REMARK  224  A    between atoms: _521  and  _522
REMARK  225  A    between atoms: _525  and  _526
REMARK  226  A    between atoms: _531  and  _533
REMARK  227  A    between atoms: _533  and  _534
REMARK  228  A    between atoms: _533  and  _536
REMARK  229  A    between atoms: _539  and  _541
REMARK  230  A    between atoms: _541  and  _542
REMARK  231  A    between atoms: _541  and  _544
REMARK  232  A    between atoms: _544  and  _545
REMARK  233  A    between atoms: _545  and  _546
REMARK  234  A    between atoms: _552  and  _553
REMARK  235  A    between atoms: _558  and  _560
REMARK  236  A    between atoms: _560  and  _561
REMARK  237  A    between atoms: _560  and  _563
REMARK  238  A    between atoms: _563  and  _564
REMARK  239  A    between atoms: _567  and  _569
REMARK  240  A    between atoms: _569  and  _570
REMARK  241  A    between atoms: _569  and  _572
REMARK  242  A    between atoms: _572  and  _573
REMARK  243  A    between atoms: _573  and  _574
REMARK  244  A    between atoms: _577  and  _579
REMARK  245  A    between atoms: _579  and  _580
REMARK  246  A    between atoms: _579  and  _582
REMARK  247  A    between atoms: _585  and  _587
REMARK  248  A    between atoms: _587  and  _588
REMARK  249  A    between atoms: _591  and  _593
REMARK  250  A    between atoms: _593  and  _594
REMARK  251  A    between atoms: _593  and  _596
REMARK  252  A    between atoms: _596  and  _597
REMARK  253  A    between atoms: _597  and  _598
REMARK  254  A    between atoms: _601  and  _603
REMARK  255  A    between atoms: _603  and  _604
REMARK  256  A    between atoms: _606  and  _608
REMARK  257  A    between atoms: _608  and  _609
REMARK  258  A    between atoms: _608  and  _611
REMARK  259  A    between atoms: _611  and  _612
REMARK                            x       y       z     vdW  Elec       q    Type
REMARK                         _______ _______ _______ _____ _____    ______ ____
ROOT
ATOM      1  C   LYS A   5      26.334  81.176  37.026  0.00  0.00    +0.241 C 
ATOM      2  O   LYS A   5      26.253  80.394  37.974  0.00  0.00    -0.273 OA
ATOM      3  N   ILE A   6      26.732  80.806  35.813  0.00  0.00    -0.297 N 
ATOM      4  H   ILE A   6      26.796  81.521  35.060  0.00  0.00    +0.150 HD
ENDROOT
BRANCH   1   5
ATOM      5  CA  LYS A   5      25.957  82.644  37.187  0.00  0.00    +0.149 C 
BRANCH   5   8
ATOM      6  C   ALA A   4      28.263  83.419  36.983  0.00  0.00    +0.241 C 
ATOM      7  O   ALA A   4      28.657  82.630  37.842  0.00  0.00    -0.273 OA
ATOM      8  N   LYS A   5      26.982  83.530  36.635  0.00  0.00    -0.297 N 
ATOM      9  H   LYS A   5      26.704  84.265  35.954  0.00  0.00    +0.150 HD
BRANCH   6  10
ATOM     10  CA  ALA A   4      29.249  84.328  36.253  0.00  0.00    +0.149 C 
ATOM     11  CB  ALA A   4      29.165  85.768  36.779  0.00  0.00    +0.031 C 
BRANCH  10  13
ATOM     12  C   LYS A   3      29.176  83.176  34.106  0.00  0.00    +0.241 C 
ATOM     13  N   ALA A   4      28.997  84.288  34.817  0.00  0.00    -0.297 N 
ATOM     14  H   ALA A   4      28.669  85.150  34.336  0.00  0.00    +0.150 HD
ATOM     15  O   LYS A   3      29.583  82.117  34.601  0.00  0.00    -0.273 OA
BRANCH  12  16
ATOM     16  CA  LYS A   3      28.854  83.271  32.616  0.00  0.00    +0.149 C 
BRANCH  16  19
ATOM     17  C   GLU A   2      26.474  83.632  32.882  0.00  0.00    +0.241 C 
ATOM     18  O   GLU A   2      26.369  82.584  33.523  0.00  0.00    -0.273 OA
ATOM     19  N   LYS A   3      27.632  84.042  32.379  0.00  0.00    -0.297 N 
ATOM     20  H   LYS A   3      27.671  84.914  31.814  0.00  0.00    +0.150 HD
BRANCH  17  21
ATOM     21  CA  GLU A   2      25.255  84.533  32.646  0.00  0.00    +0.149 C 
BRANCH  21  24
ATOM     22  C   ALA A   1      26.002  86.393  33.987  0.00  0.00    +0.238 C 
ATOM     23  O   ALA A   1      26.048  85.668  34.975  0.00  0.00    -0.274 OA
ATOM     24  N   GLU A   2      25.615  85.942  32.797  0.00  0.00    -0.297 N 
ATOM     25  H   GLU A   2      25.569  86.586  31.981  0.00  0.00    +0.150 HD
BRANCH  22  26
ATOM     26  CA  ALA A   1      26.397  87.864  34.090  0.00  0.00    +0.145 C 
ATOM     27  CB  ALA A   1      25.150  88.758  34.175  0.00  0.00    +0.028 C 
BRANCH  26  28
ATOM     28  N   ALA A   1      27.251  88.273  32.983  0.00  0.00    -0.238 NA
ATOM     29  H   ALA A   1      26.916  89.004  32.323  0.00  0.00    +0.142 HD
ENDBRANCH  26  28
ENDBRANCH  22  26
ENDBRANCH  21  24
BRANCH  21  30
ATOM     30  CB  GLU A   2      24.618  84.237  31.276  0.00  0.00    +0.041 C 
BRANCH  30  31
ATOM     31  CG  GLU A   2      24.081  82.811  31.196  0.00  0.00    +0.116 C 
BRANCH  31  32
ATOM     32  CD  GLU A   2      23.630  82.411  29.802  0.00  0.00    +0.365 C 
ATOM     33  OE2 GLU A   2      23.039  81.324  29.671  0.00  0.00    -0.246 OA
ATOM     34  OE1 GLU A   2      23.855  83.178  28.843  0.00  0.00    -0.246 OA
ENDBRANCH  31  32
ENDBRANCH  30  31
ENDBRANCH  21  30
ENDBRANCH  17  21
ENDBRANCH  16  19
BRANCH  16  35
ATOM     35  CB  LYS A   3      30.047  83.869  31.871  0.00  0.00    +0.029 C 
BRANCH  35  36
ATOM     36  CG  LYS A   3      30.087  83.573  30.382  0.00  0.00    +0.000 C 
BRANCH  36  37
ATOM     37  CD  LYS A   3      31.272  84.271  29.731  0.00  0.00    -0.024 C 
BRANCH  37  38
ATOM     38  CE  LYS A   3      31.135  84.326  28.219  0.00  0.00    -0.086 C 
BRANCH  38  39
ATOM     39  NZ  LYS A   3      32.037  85.356  27.625  0.00  0.00    +0.380 N 
ATOM     40  HZ1 LYS A   3      31.796  86.291  28.012  0.00  0.00    -0.089 HD
ATOM     41  HZ2 LYS A   3      33.024  85.127  27.858  0.00  0.00    -0.089 HD
ATOM     42  HZ3 LYS A   3      31.917  85.366  26.592  0.00  0.00    -0.089 HD
ENDBRANCH  38  39
ENDBRANCH  37  38
ENDBRANCH  36  37
ENDBRANCH  35  36
ENDBRANCH  16  35
ENDBRANCH  12  16
ENDBRANCH  10  13
ENDBRANCH   6  10
ENDBRANCH   5   8
BRANCH   5  43
ATOM     43  CB  LYS A   5      24.603  82.881  36.513  0.00  0.00    +0.029 C 
BRANCH  43  44
ATOM     44  CG  LYS A   5      23.513  81.949  37.013  0.00  0.00    +0.000 C 
BRANCH  44  45
ATOM     45  CD  LYS A   5      22.245  82.035  36.158  0.00  0.00    -0.024 C 
BRANCH  45  46
ATOM     46  CE  LYS A   5      22.473  81.452  34.754  0.00  0.00    -0.086 C 
BRANCH  46  47
ATOM     47  NZ  LYS A   5      21.212  81.427  33.954  0.00  0.00    +0.380 N 
ATOM     48  HZ1 LYS A   5      20.505  80.840  34.442  0.00  0.00    -0.089 HD
ATOM     49  HZ2 LYS A   5      20.849  82.396  33.851  0.00  0.00    -0.089 HD
ATOM     50  HZ3 LYS A   5      21.407  81.027  33.014  0.00  0.00    -0.089 HD
ENDBRANCH  46  47
ENDBRANCH  45  46
ENDBRANCH  44  45
ENDBRANCH  43  44
ENDBRANCH   5  43
ENDBRANCH   1   5
BRANCH   3  51
ATOM     51  CA  ILE A   6      27.082  79.418  35.511  0.00  0.00    +0.149 C 
BRANCH  51  52
ATOM     52  C   ILE A   6      28.305  78.935  36.300  0.00  0.00    +0.241 C 
ATOM     53  O   ILE A   6      28.315  77.825  36.828  0.00  0.00    -0.273 OA
ATOM     54  N   GLU A   7      29.327  79.777  36.394  0.00  0.00    -0.297 N 
ATOM     55  H   GLU A   7      29.296  80.681  35.880  0.00  0.00    +0.150 HD
BRANCH  54  56
ATOM     56  CA  GLU A   7      30.496  79.450  37.211  0.00  0.00    +0.149 C 
BRANCH  56  57
ATOM     57  C   GLU A   7      30.138  79.156  38.668  0.00  0.00    +0.241 C 
ATOM     58  O   GLU A   7      30.746  78.298  39.306  0.00  0.00    -0.273 OA
ATOM     59  N   LEU A   8      29.148  79.871  39.193  0.00  0.00    -0.297 N 
ATOM     60  H   LEU A   8      28.613  80.523  38.584  0.00  0.00    +0.150 HD
BRANCH  59  61
ATOM     61  CA  LEU A   8      28.794  79.762  40.606  0.00  0.00    +0.149 C 
BRANCH  61  62
ATOM     62  C   LEU A   8      27.997  78.507  40.928  0.00  0.00    +0.241 C 
ATOM     63  O   LEU A   8      27.710  78.224  42.092  0.00  0.00    -0.273 OA
ATOM     64  N   SER A   9      27.648  77.743  39.898  0.00  0.00    -0.295 N 
ATOM     65  H   SER A   9      27.801  78.081  38.926  0.00  0.00    +0.150 HD
BRANCH  64  66
ATOM     66  CA  SER A   9      27.052  76.435  40.126  0.00  0.00    +0.178 C 
BRANCH  66  67
ATOM     67  C   SER A   9      28.115  75.405  40.515  0.00  0.00    +0.243 C 
ATOM     68  O   SER A   9      27.785  74.318  40.980  0.00  0.00    -0.273 OA
ATOM     69  N   SER A  10      29.382  75.740  40.310  0.00  0.00    -0.295 N 
ATOM     70  H   SER A  10      29.607  76.670  39.902  0.00  0.00    +0.150 HD
BRANCH  69  71
ATOM     71  CA  SER A  10      30.469  74.818  40.650  0.00  0.00    +0.178 C 
BRANCH  71  72
ATOM     72  C   SER A  10      31.523  75.455  41.563  0.00  0.00    +0.243 C 
ATOM     73  O   SER A  10      32.014  74.816  42.493  0.00  0.00    -0.273 OA
ATOM     74  N   ALA A  11      31.872  76.706  41.294  0.00  0.00    -0.298 N 
ATOM     75  H   ALA A  11      31.502  77.165  40.437  0.00  0.00    +0.150 HD
BRANCH  74  76
ATOM     76  CA  ALA A  11      32.767  77.454  42.177  0.00  0.00    +0.137 C 
ATOM     77  CB  ALA A  11      33.632  78.406  41.377  0.00  0.00    +0.030 C 
BRANCH  76  78
ATOM     78  C   ALA A  11      31.963  78.218  43.231  0.00  0.00    +0.227 C 
ATOM     79  O   ALA A  11      30.737  78.314  43.138  0.00  0.00    -0.286 OA
ENDBRANCH  76  78
ENDBRANCH  74  76
ENDBRANCH  71  72
BRANCH  71  80
ATOM     80  CB  SER A  10      31.123  74.248  39.387  0.00  0.00    +0.166 C 
BRANCH  80  81
ATOM     81  OG  SER A  10      31.717  75.265  38.604  0.00  0.00    -0.380 OA
ATOM     82  H   SER A  10      32.413  75.726  39.136  0.00  0.00    +0.211 HD
ENDBRANCH  80  81
ENDBRANCH  71  80
ENDBRANCH  69  71
ENDBRANCH  66  67
BRANCH  66  83
ATOM     83  CB  SER A   9      26.283  75.955  38.890  0.00  0.00    +0.166 C 
BRANCH  83  84
ATOM     84  OG  SER A   9      25.044  76.638  38.786  0.00  0.00    -0.380 OA
ATOM     85  H   SER A   9      24.559  76.319  37.984  0.00  0.00    +0.211 HD
ENDBRANCH  83  84
ENDBRANCH  66  83
ENDBRANCH  64  66
ENDBRANCH  61  62
BRANCH  61  86
ATOM     86  CB  LEU A   8      28.057  81.020  41.084  0.00  0.00    +0.029 C 
BRANCH  86  87
ATOM     87  CG  LEU A   8      28.950  82.254  41.237  0.00  0.00    +0.002 C 
ATOM     88  CD2 LEU A   8      30.004  82.035  42.336  0.00  0.00    +0.000 C 
ATOM     89  CD1 LEU A   8      28.111  83.494  41.526  0.00  0.00    +0.000 C 
ENDBRANCH  86  87
ENDBRANCH  61  86
ENDBRANCH  59  61
ENDBRANCH  56  57
BRANCH  56  90
ATOM     90  CB  GLU A   7      31.525  80.577  37.160  0.00  0.00    +0.041 C 
BRANCH  90  91
ATOM     91  CG  GLU A   7      32.345  80.626  35.893  0.00  0.00    +0.116 C 
BRANCH  91  92
ATOM     92  CD  GLU A   7      33.712  81.234  36.125  0.00  0.00    +0.365 C 
ATOM     93  OE2 GLU A   7      33.915  81.840  37.202  0.00  0.00    -0.246 OA
ATOM     94  OE1 GLU A   7      34.586  81.092  35.241  0.00  0.00    -0.246 OA
ENDBRANCH  91  92
ENDBRANCH  90  91
ENDBRANCH  56  90
ENDBRANCH  54  56
ENDBRANCH  51  52
BRANCH  51  95
ATOM     95  CB  ILE A   6      27.279  79.212  33.993  0.00  0.00    +0.027 C 
ATOM     96  CG2 ILE A   6      27.915  77.852  33.708  0.00  0.00    +0.002 C 
BRANCH  95  97
ATOM     97  CG1 ILE A   6      25.927  79.351  33.280  0.00  0.00    +0.002 C 
ATOM     98  CD1 ILE A   6      26.015  79.396  31.743  0.00  0.00    +0.000 C 
ENDBRANCH  95  97
ENDBRANCH  51  95
ENDBRANCH   3  51
TORSDOF 46
REMARK  Name = ../refined-set-2016/4jne/4jne_pocket.pdb
REMARK  259 active torsions:
REMARK  status: ('A' for Active; 'I' for Inactive)
REMARK    1  A    between atoms: _1  and  _3
REMARK    2  A    between atoms: _3  and  _4
REMARK    3  A    between atoms: _3  and  _6
REMARK    4  A    between atoms: _6  and  _7
REMARK    5  A    between atoms: _10  and  _12
REMARK    6  A    between atoms: _12  and  _13
REMARK    7  A    between atoms: _12  and  _15
REMARK    8  A    between atoms: _15  and  _16
REMARK    9  A    between atoms: _19  and  _21
REMARK   10  A    between atoms: _21  and  _22
REMARK   11  A    between atoms: _24  and  _26
REMARK   12  A    between atoms: _26  and  _27
REMARK   13  A    between atoms: _26  and  _29
REMARK   14  A    between atoms: _29  and  _30
REMARK   15  A    between atoms: _33  and  _35
REMARK   16  A    between atoms: _35  and  _36
REMARK   17  A    between atoms: _35  and  _38
REMARK   18  A    between atoms: _38  and  _39
REMARK   19  A    between atoms: _42  and  _44
REMARK   20  A    between atoms: _44  and  _45
REMARK   21  A    between atoms: _44  and  _47
REMARK   22  A    between atoms: _47  and  _48
REMARK   23  A    between atoms: _53  and  _55
REMARK   24  A    between atoms: _55  and  _56
REMARK   25  A    between atoms: _55  and  _58
REMARK   26  A    between atoms: _58  and  _59
REMARK   27  A    between atoms: _61  and  _63
REMARK   28  A    between atoms: _63  and  _64
REMARK   29  A    between atoms: _63  and  _66
REMARK   30  A    between atoms: _68  and  _70
REMARK   31  A    between atoms: _70  and  _71
REMARK   32  A    between atoms: _70  and  _73
REMARK   33  A    between atoms: _73  and  _74
REMARK   34  A    between atoms: _77  and  _79
REMARK   35  A    between atoms: _79  and  _80
REMARK   36  A    between atoms: _79  and  _82
REMARK   37  A    between atoms: _82  and  _83
REMARK   38  A    between atoms: _87  and  _88
REMARK   39  A    between atoms: _93  and  _95
REMARK   40  A    between atoms: _95  and  _96
REMARK   41  A    between atoms: _95  and  _98
REMARK   42  A    between atoms: _98  and  _99
REMARK   43  A    between atoms: _101  and  _103
REMARK   44  A    between atoms: _103  and  _104
REMARK   45  A    between atoms: _103  and  _106
REMARK   46  A    between atoms: _106  and  _107
REMARK   47  A    between atoms: _107  and  _108
REMARK   48  A    between atoms: _108  and  _109
REMARK   49  A    between atoms: _109  and  _110
REMARK   50  A    between atoms: _114  and  _116
REMARK   51  A    between atoms: _116  and  _117
REMARK   52  A    between atoms: _120  and  _122
REMARK   53  A    between atoms: _122  and  _123
REMARK   54  A    between atoms: _122  and  _125
REMARK   55  A    between atoms: _125  and  _126
REMARK   56  A    between atoms: _126  and  _127
REMARK   57  A    between atoms: _127  and  _128
REMARK   58  A    between atoms: _128  and  _129
REMARK   59  A    between atoms: _133  and  _135
REMARK   60  A    between atoms: _135  and  _136
REMARK   61  A    between atoms: _135  and  _138
REMARK   62  A    between atoms: _138  and  _139
REMARK   63  A    between atoms: _139  and  _140
REMARK   64  A    between atoms: _140  and  _141
REMARK   65  A    between atoms: _150  and  _152
REMARK   66  A    between atoms: _152  and  _153
REMARK   67  A    between atoms: _152  and  _155
REMARK   68  A    between atoms: _155  and  _156
REMARK   69  A    between atoms: _159  and  _161
REMARK   70  A    between atoms: _161  and  _162
REMARK   71  A    between atoms: _161  and  _164
REMARK   72  A    between atoms: _168  and  _169
REMARK   73  A    between atoms: _174  and  _176
REMARK   74  A    between atoms: _176  and  _177
REMARK   75  A    between atoms: _180  and  _182
REMARK   76  A    between atoms: _182  and  _183
REMARK   77  A    between atoms: _182  and  _185
REMARK   78  A    between atoms: _185  and  _186
REMARK   79  A    between atoms: _192  and  _194
REMARK   80  A    between atoms: _194  and  _195
REMARK   81  A    between atoms: _194  and  _197
REMARK   82  A    between atoms: _197  and  _198
REMARK   83  A    between atoms: _198  and  _199
REMARK   84  A    between atoms: _202  and  _204
REMARK   85  A    between atoms: _204  and  _205
REMARK   86  A    between atoms: _204  and  _207
REMARK   87  A    between atoms: _207  and  _208
REMARK   88  A    between atoms: _211  and  _213
REMARK   89  A    between atoms: _213  and  _214
REMARK   90  A    between atoms: _213  and  _216
REMARK   91  A    between atoms: _216  and  _217
REMARK   92  A    between atoms: _220  and  _222
REMARK   93  A    between atoms: _222  and  _223
REMARK   94  A    between atoms: _225  and  _227
REMARK   95  A    between atoms: _227  and  _228
REMARK   96  A    between atoms: _230  and  _232
REMARK   97  A    between atoms: _232  and  _233
REMARK   98  A    between atoms: _235  and  _237
REMARK   99  A    between atoms: _237  and  _238
REMARK  100  A    between atoms: _241  and  _243
REMARK  101  A    between atoms: _243  and  _244
REMARK  102  A    between atoms: _243  and  _246
REMARK  103  A    between atoms: _246  and  _247
REMARK  104  A    between atoms: _253  and  _255
REMARK  105  A    between atoms: _255  and  _256
REMARK  106  A    between atoms: _255  and  _258
REMARK  107  A    between atoms: _258  and  _259
REMARK  108  A    between atoms: _262  and  _264
REMARK  109  A    between atoms: _264  and  _265
REMARK  110  A    between atoms: _264  and  _267
REMARK  111  A    between atoms: _267  and  _268
REMARK  112  A    between atoms: _271  and  _273
REMARK  113  A    between atoms: _273  and  _274
REMARK  114  A    between atoms: _273  and  _276
REMARK  115  A    between atoms: _276  and  _277
REMARK  116  A    between atoms: _280  and  _282
REMARK  117  A    between atoms: _282  and  _283
REMARK  118  A    between atoms: _282  and  _285
REMARK  119  A    between atoms: _285  and  _286
REMARK  120  A    between atoms: _289  and  _291
REMARK  121  A    between atoms: _291  and  _292
REMARK  122  A    between atoms: _294  and  _296
REMARK  123  A    between atoms: _296  and  _297
REMARK  124  A    between atoms: _299  and  _301
REMARK  125  A    between atoms: _301  and  _302
REMARK  126  A    between atoms: _301  and  _304
REMARK  127  A    between atoms: _304  and  _305
REMARK  128  A    between atoms: _305  and  _306
REMARK  129  A    between atoms: _309  and  _311
REMARK  130  A    between atoms: _311  and  _312
REMARK  131  A    between atoms: _311  and  _314
REMARK  132  A    between atoms: _314  and  _315
REMARK  133  A    between atoms: _318  and  _320
REMARK  134  A    between atoms: _320  and  _321
REMARK  135  A    between atoms: _320  and  _323
REMARK  136  A    between atoms: _323  and  _324
REMARK  137  A    between atoms: _330  and  _332
REMARK  138  A    between atoms: _332  and  _333
REMARK  139  A    between atoms: _332  and  _335
REMARK  140  A    between atoms: _335  and  _336
REMARK  141  A    between atoms: _339  and  _341
REMARK  142  A    between atoms: _341  and  _342
REMARK  143  A    between atoms: _341  and  _344
REMARK  144  A    between atoms: _344  and  _345
REMARK  145  A    between atoms: _345  and  _346
REMARK  146  A    between atoms: _346  and  _347
REMARK  147  A    between atoms: _347  and  _348
REMARK  148  A    between atoms: _352  and  _354
REMARK  149  A    between atoms: _354  and  _355
REMARK  150  A    between atoms: _358  and  _360
REMARK  151  A    between atoms: _360  and  _361
REMARK  152  A    between atoms: _360  and  _363
REMARK  153  A    between atoms: _363  and  _364
REMARK  154  A    between atoms: _364  and  _365
REMARK  155  A    between atoms: _368  and  _370
REMARK  156  A    between atoms: _370  and  _371
REMARK  157  A    between atoms: _370  and  _373
REMARK  158  A    between atoms: _373  and  _374
REMARK  159  A    between atoms: _374  and  _375
REMARK  160  A    between atoms: _375  and  _376
REMARK  161  A    between atoms: _376  and  _377
REMARK  162  A    between atoms: _381  and  _383
REMARK  163  A    between atoms: _383  and  _384
REMARK  164  A    between atoms: _387  and  _389
REMARK  165  A    between atoms: _389  and  _390
REMARK  166  A    between atoms: _389  and  _392
REMARK  167  A    between atoms: _392  and  _393
REMARK  168  A    between atoms: _393  and  _394
REMARK  169  A    between atoms: _394  and  _395
REMARK  170  A    between atoms: _395  and  _396
REMARK  171  A    between atoms: _400  and  _402
REMARK  172  A    between atoms: _402  and  _403
REMARK  173  A    between atoms: _402  and  _405
REMARK  174  A    between atoms: _405  and  _406
REMARK  175  A    between atoms: _409  and  _411
REMARK  176  A    between atoms: _411  and  _412
REMARK  177  A    between atoms: _411  and  _414
REMARK  178  A    between atoms: _414  and  _415
REMARK  179  A    between atoms: _415  and  _416
REMARK  180  A    between atoms: _419  and  _421
REMARK  181  A    between atoms: _421  and  _422
REMARK  182  A    between atoms: _421  and  _424
REMARK  183  A    between atoms: _424  and  _425
REMARK  184  A    between atoms: _428  and  _430
REMARK  185  A    between atoms: _430  and  _431
REMARK  186  A    between atoms: _430  and  _433
REMARK  187  A    between atoms: _433  and  _434
REMARK  188  A    between atoms: _436  and  _438
REMARK  189  A    between atoms: _438  and  _439
REMARK  190  A    between atoms: _438  and  _441
REMARK  191  A    between atoms: _441  and  _442
REMARK  192  A    between atoms: _444  and  _446
REMARK  193  A    between atoms: _446  and  _447
REMARK  194  A    between atoms: _450  and  _452
REMARK  195  A    between atoms: _452  and  _453
REMARK  196  A    between atoms: _452  and  _455
REMARK  197  A    between atoms: _455  and  _456
REMARK  198  A    between atoms: _459  and  _461
REMARK  199  A    between atoms: _461  and  _462
REMARK  200  A    between atoms: _461  and  _464
REMARK  201  A    between atoms: _467  and  _469
REMARK  202  A    between atoms: _469  and  _470
REMARK  203  A    between atoms: _472  and  _474
REMARK  204  A    between atoms: _474  and  _475
REMARK  205  A    between atoms: _477  and  _479
REMARK  206  A    between atoms: _479  and  _480
REMARK  207  A    between atoms: _479  and  _482
REMARK  208  A    between atoms: _482  and  _483
REMARK  209  A    between atoms: _483  and  _484
REMARK  210  A    between atoms: _489  and  _491
REMARK  211  A    between atoms: _491  and  _492
REMARK  212  A    between atoms: _491  and  _494
REMARK  213  A    between atoms: _494  and  _495
REMARK  214  A    between atoms: _498  and  _500
REMARK  215  A    between atoms: _500  and  _501
REMARK  216  A    between atoms: _500  and  _503
REMARK  217  A    between atoms: _503  and  _504
REMARK  218  A    between atoms: _504  and  _505
REMARK  219  A    between atoms: _505  and  _506
REMARK  220  A    between atoms: _515  and  _517
REMARK  221  A    between atoms: _517  and  _518
REMARK  222  A    between atoms: _517  and  _520
REMARK  223  A    between atoms: _520  and  _521
REMARK  224  A    between atoms: _521  and  _522
REMARK  225  A    between atoms: _525  and  _526
REMARK  226  A    between atoms: _531  and  _533
REMARK  227  A    between atoms: _533  and  _534
REMARK  228  A    between atoms: _533  and  _536
REMARK  229  A    between atoms: _539  and  _541
REMARK  230  A    between atoms: _541  and  _542
REMARK  231  A    between atoms: _541  and  _544
REMARK  232  A    between atoms: _544  and  _545
REMARK  233  A    between atoms: _545  and  _546
REMARK  234  A    between atoms: _552  and  _553
REMARK  235  A    between atoms: _558  and  _560
REMARK  236  A    between atoms: _560  and  _561
REMARK  237  A    between atoms: _560  and  _563
REMARK  238  A    between atoms: _563  and  _564
REMARK  239  A    between atoms: _567  and  _569
REMARK  240  A    between atoms: _569  and  _570
REMARK  241  A    between atoms: _569  and  _572
REMARK  242  A    between atoms: _572  and  _573
REMARK  243  A    between atoms: _573  and  _574
REMARK  244  A    between atoms: _577  and  _579
REMARK  245  A    between atoms: _579  and  _580
REMARK  246  A    between atoms: _579  and  _582
REMARK  247  A    between atoms: _585  and  _587
REMARK  248  A    between atoms: _587  and  _588
REMARK  249  A    between atoms: _591  and  _593
REMARK  250  A    between atoms: _593  and  _594
REMARK  251  A    between atoms: _593  and  _596
REMARK  252  A    between atoms: _596  and  _597
REMARK  253  A    between atoms: _597  and  _598
REMARK  254  A    between atoms: _601  and  _603
REMARK  255  A    between atoms: _603  and  _604
REMARK  256  A    between atoms: _606  and  _608
REMARK  257  A    between atoms: _608  and  _609
REMARK  258  A    between atoms: _608  and  _611
REMARK  259  A    between atoms: _611  and  _612
REMARK                            x       y       z     vdW  Elec       q    Type
REMARK                         _______ _______ _______ _____ _____    ______ ____
ROOT
ATOM      1  CA  LEU A   1      23.934  85.059  43.961  0.00  0.00    +0.133 C 
ENDROOT
BRANCH   1   2
ATOM      2  N   LEU A   1      24.832  85.472  45.035  0.00  0.00    -0.239 NA
ATOM      3  H   LEU A   1      25.786  85.062  45.093  0.00  0.00    +0.142 HD
ENDBRANCH   1   2
BRANCH   1   4
ATOM      4  C   LEU A   1      22.654  84.456  44.528  0.00  0.00    +0.224 C 
ATOM      5  O   LEU A   1      21.541  84.808  44.111  0.00  0.00    -0.287 OA
ENDBRANCH   1   4
BRANCH   1   6
ATOM      6  CB  LEU A   1      24.626  84.068  43.015  0.00  0.00    +0.025 C 
BRANCH   6   7
ATOM      7  CG  LEU A   1      23.739  83.471  41.918  0.00  0.00    +0.002 C 
ATOM      8  CD2 LEU A   1      23.076  84.576  41.107  0.00  0.00    +0.000 C 
ATOM      9  CD1 LEU A   1      24.555  82.552  41.018  0.00  0.00    +0.000 C 
ENDBRANCH   6   7
ENDBRANCH   1   6
TORSDOF 4
REMARK  Name = ../refined-set-2016/4jne/4jne_pocket.pdb
REMARK  259 active torsions:
REMARK  status: ('A' for Active; 'I' for Inactive)
REMARK    1  A    between atoms: _1  and  _3
REMARK    2  A    between atoms: _3  and  _4
REMARK    3  A    between atoms: _3  and  _6
REMARK    4  A    between atoms: _6  and  _7
REMARK    5  A    between atoms: _10  and  _12
REMARK    6  A    between atoms: _12  and  _13
REMARK    7  A    between atoms: _12  and  _15
REMARK    8  A    between atoms: _15  and  _16
REMARK    9  A    between atoms: _19  and  _21
REMARK   10  A    between atoms: _21  and  _22
REMARK   11  A    between atoms: _24  and  _26
REMARK   12  A    between atoms: _26  and  _27
REMARK   13  A    between atoms: _26  and  _29
REMARK   14  A    between atoms: _29  and  _30
REMARK   15  A    between atoms: _33  and  _35
REMARK   16  A    between atoms: _35  and  _36
REMARK   17  A    between atoms: _35  and  _38
REMARK   18  A    between atoms: _38  and  _39
REMARK   19  A    between atoms: _42  and  _44
REMARK   20  A    between atoms: _44  and  _45
REMARK   21  A    between atoms: _44  and  _47
REMARK   22  A    between atoms: _47  and  _48
REMARK   23  A    between atoms: _53  and  _55
REMARK   24  A    between atoms: _55  and  _56
REMARK   25  A    between atoms: _55  and  _58
REMARK   26  A    between atoms: _58  and  _59
REMARK   27  A    between atoms: _61  and  _63
REMARK   28  A    between atoms: _63  and  _64
REMARK   29  A    between atoms: _63  and  _66
REMARK   30  A    between atoms: _68  and  _70
REMARK   31  A    between atoms: _70  and  _71
REMARK   32  A    between atoms: _70  and  _73
REMARK   33  A    between atoms: _73  and  _74
REMARK   34  A    between atoms: _77  and  _79
REMARK   35  A    between atoms: _79  and  _80
REMARK   36  A    between atoms: _79  and  _82
REMARK   37  A    between atoms: _82  and  _83
REMARK   38  A    between atoms: _87  and  _88
REMARK   39  A    between atoms: _93  and  _95
REMARK   40  A    between atoms: _95  and  _96
REMARK   41  A    between atoms: _95  and  _98
REMARK   42  A    between atoms: _98  and  _99
REMARK   43  A    between atoms: _101  and  _103
REMARK   44  A    between atoms: _103  and  _104
REMARK   45  A    between atoms: _103  and  _106
REMARK   46  A    between atoms: _106  and  _107
REMARK   47  A    between atoms: _107  and  _108
REMARK   48  A    between atoms: _108  and  _109
REMARK   49  A    between atoms: _109  and  _110
REMARK   50  A    between atoms: _114  and  _116
REMARK   51  A    between atoms: _116  and  _117
REMARK   52  A    between atoms: _120  and  _122
REMARK   53  A    between atoms: _122  and  _123
REMARK   54  A    between atoms: _122  and  _125
REMARK   55  A    between atoms: _125  and  _126
REMARK   56  A    between atoms: _126  and  _127
REMARK   57  A    between atoms: _127  and  _128
REMARK   58  A    between atoms: _128  and  _129
REMARK   59  A    between atoms: _133  and  _135
REMARK   60  A    between atoms: _135  and  _136
REMARK   61  A    between atoms: _135  and  _138
REMARK   62  A    between atoms: _138  and  _139
REMARK   63  A    between atoms: _139  and  _140
REMARK   64  A    between atoms: _140  and  _141
REMARK   65  A    between atoms: _150  and  _152
REMARK   66  A    between atoms: _152  and  _153
REMARK   67  A    between atoms: _152  and  _155
REMARK   68  A    between atoms: _155  and  _156
REMARK   69  A    between atoms: _159  and  _161
REMARK   70  A    between atoms: _161  and  _162
REMARK   71  A    between atoms: _161  and  _164
REMARK   72  A    between atoms: _168  and  _169
REMARK   73  A    between atoms: _174  and  _176
REMARK   74  A    between atoms: _176  and  _177
REMARK   75  A    between atoms: _180  and  _182
REMARK   76  A    between atoms: _182  and  _183
REMARK   77  A    between atoms: _182  and  _185
REMARK   78  A    between atoms: _185  and  _186
REMARK   79  A    between atoms: _192  and  _194
REMARK   80  A    between atoms: _194  and  _195
REMARK   81  A    between atoms: _194  and  _197
REMARK   82  A    between atoms: _197  and  _198
REMARK   83  A    between atoms: _198  and  _199
REMARK   84  A    between atoms: _202  and  _204
REMARK   85  A    between atoms: _204  and  _205
REMARK   86  A    between atoms: _204  and  _207
REMARK   87  A    between atoms: _207  and  _208
REMARK   88  A    between atoms: _211  and  _213
REMARK   89  A    between atoms: _213  and  _214
REMARK   90  A    between atoms: _213  and  _216
REMARK   91  A    between atoms: _216  and  _217
REMARK   92  A    between atoms: _220  and  _222
REMARK   93  A    between atoms: _222  and  _223
REMARK   94  A    between atoms: _225  and  _227
REMARK   95  A    between atoms: _227  and  _228
REMARK   96  A    between atoms: _230  and  _232
REMARK   97  A    between atoms: _232  and  _233
REMARK   98  A    between atoms: _235  and  _237
REMARK   99  A    between atoms: _237  and  _238
REMARK  100  A    between atoms: _241  and  _243
REMARK  101  A    between atoms: _243  and  _244
REMARK  102  A    between atoms: _243  and  _246
REMARK  103  A    between atoms: _246  and  _247
REMARK  104  A    between atoms: _253  and  _255
REMARK  105  A    between atoms: _255  and  _256
REMARK  106  A    between atoms: _255  and  _258
REMARK  107  A    between atoms: _258  and  _259
REMARK  108  A    between atoms: _262  and  _264
REMARK  109  A    between atoms: _264  and  _265
REMARK  110  A    between atoms: _264  and  _267
REMARK  111  A    between atoms: _267  and  _268
REMARK  112  A    between atoms: _271  and  _273
REMARK  113  A    between atoms: _273  and  _274
REMARK  114  A    between atoms: _273  and  _276
REMARK  115  A    between atoms: _276  and  _277
REMARK  116  A    between atoms: _280  and  _282
REMARK  117  A    between atoms: _282  and  _283
REMARK  118  A    between atoms: _282  and  _285
REMARK  119  A    between atoms: _285  and  _286
REMARK  120  A    between atoms: _289  and  _291
REMARK  121  A    between atoms: _291  and  _292
REMARK  122  A    between atoms: _294  and  _296
REMARK  123  A    between atoms: _296  and  _297
REMARK  124  A    between atoms: _299  and  _301
REMARK  125  A    between atoms: _301  and  _302
REMARK  126  A    between atoms: _301  and  _304
REMARK  127  A    between atoms: _304  and  _305
REMARK  128  A    between atoms: _305  and  _306
REMARK  129  A    between atoms: _309  and  _311
REMARK  130  A    between atoms: _311  and  _312
REMARK  131  A    between atoms: _311  and  _314
REMARK  132  A    between atoms: _314  and  _315
REMARK  133  A    between atoms: _318  and  _320
REMARK  134  A    between atoms: _320  and  _321
REMARK  135  A    between atoms: _320  and  _323
REMARK  136  A    between atoms: _323  and  _324
REMARK  137  A    between atoms: _330  and  _332
REMARK  138  A    between atoms: _332  and  _333
REMARK  139  A    between atoms: _332  and  _335
REMARK  140  A    between atoms: _335  and  _336
REMARK  141  A    between atoms: _339  and  _341
REMARK  142  A    between atoms: _341  and  _342
REMARK  143  A    between atoms: _341  and  _344
REMARK  144  A    between atoms: _344  and  _345
REMARK  145  A    between atoms: _345  and  _346
REMARK  146  A    between atoms: _346  and  _347
REMARK  147  A    between atoms: _347  and  _348
REMARK  148  A    between atoms: _352  and  _354
REMARK  149  A    between atoms: _354  and  _355
REMARK  150  A    between atoms: _358  and  _360
REMARK  151  A    between atoms: _360  and  _361
REMARK  152  A    between atoms: _360  and  _363
REMARK  153  A    between atoms: _363  and  _364
REMARK  154  A    between atoms: _364  and  _365
REMARK  155  A    between atoms: _368  and  _370
REMARK  156  A    between atoms: _370  and  _371
REMARK  157  A    between atoms: _370  and  _373
REMARK  158  A    between atoms: _373  and  _374
REMARK  159  A    between atoms: _374  and  _375
REMARK  160  A    between atoms: _375  and  _376
REMARK  161  A    between atoms: _376  and  _377
REMARK  162  A    between atoms: _381  and  _383
REMARK  163  A    between atoms: _383  and  _384
REMARK  164  A    between atoms: _387  and  _389
REMARK  165  A    between atoms: _389  and  _390
REMARK  166  A    between atoms: _389  and  _392
REMARK  167  A    between atoms: _392  and  _393
REMARK  168  A    between atoms: _393  and  _394
REMARK  169  A    between atoms: _394  and  _395
REMARK  170  A    between atoms: _395  and  _396
REMARK  171  A    between atoms: _400  and  _402
REMARK  172  A    between atoms: _402  and  _403
REMARK  173  A    between atoms: _402  and  _405
REMARK  174  A    between atoms: _405  and  _406
REMARK  175  A    between atoms: _409  and  _411
REMARK  176  A    between atoms: _411  and  _412
REMARK  177  A    between atoms: _411  and  _414
REMARK  178  A    between atoms: _414  and  _415
REMARK  179  A    between atoms: _415  and  _416
REMARK  180  A    between atoms: _419  and  _421
REMARK  181  A    between atoms: _421  and  _422
REMARK  182  A    between atoms: _421  and  _424
REMARK  183  A    between atoms: _424  and  _425
REMARK  184  A    between atoms: _428  and  _430
REMARK  185  A    between atoms: _430  and  _431
REMARK  186  A    between atoms: _430  and  _433
REMARK  187  A    between atoms: _433  and  _434
REMARK  188  A    between atoms: _436  and  _438
REMARK  189  A    between atoms: _438  and  _439
REMARK  190  A    between atoms: _438  and  _441
REMARK  191  A    between atoms: _441  and  _442
REMARK  192  A    between atoms: _444  and  _446
REMARK  193  A    between atoms: _446  and  _447
REMARK  194  A    between atoms: _450  and  _452
REMARK  195  A    between atoms: _452  and  _453
REMARK  196  A    between atoms: _452  and  _455
REMARK  197  A    between atoms: _455  and  _456
REMARK  198  A    between atoms: _459  and  _461
REMARK  199  A    between atoms: _461  and  _462
REMARK  200  A    between atoms: _461  and  _464
REMARK  201  A    between atoms: _467  and  _469
REMARK  202  A    between atoms: _469  and  _470
REMARK  203  A    between atoms: _472  and  _474
REMARK  204  A    between atoms: _474  and  _475
REMARK  205  A    between atoms: _477  and  _479
REMARK  206  A    between atoms: _479  and  _480
REMARK  207  A    between atoms: _479  and  _482
REMARK  208  A    between atoms: _482  and  _483
REMARK  209  A    between atoms: _483  and  _484
REMARK  210  A    between atoms: _489  and  _491
REMARK  211  A    between atoms: _491  and  _492
REMARK  212  A    between atoms: _491  and  _494
REMARK  213  A    between atoms: _494  and  _495
REMARK  214  A    between atoms: _498  and  _500
REMARK  215  A    between atoms: _500  and  _501
REMARK  216  A    between atoms: _500  and  _503
REMARK  217  A    between atoms: _503  and  _504
REMARK  218  A    between atoms: _504  and  _505
REMARK  219  A    between atoms: _505  and  _506
REMARK  220  A    between atoms: _515  and  _517
REMARK  221  A    between atoms: _517  and  _518
REMARK  222  A    between atoms: _517  and  _520
REMARK  223  A    between atoms: _520  and  _521
REMARK  224  A    between atoms: _521  and  _522
REMARK  225  A    between atoms: _525  and  _526
REMARK  226  A    between atoms: _531  and  _533
REMARK  227  A    between atoms: _533  and  _534
REMARK  228  A    between atoms: _533  and  _536
REMARK  229  A    between atoms: _539  and  _541
REMARK  230  A    between atoms: _541  and  _542
REMARK  231  A    between atoms: _541  and  _544
REMARK  232  A    between atoms: _544  and  _545
REMARK  233  A    between atoms: _545  and  _546
REMARK  234  A    between atoms: _552  and  _553
REMARK  235  A    between atoms: _558  and  _560
REMARK  236  A    between atoms: _560  and  _561
REMARK  237  A    between atoms: _560  and  _563
REMARK  238  A    between atoms: _563  and  _564
REMARK  239  A    between atoms: _567  and  _569
REMARK  240  A    between atoms: _569  and  _570
REMARK  241  A    between atoms: _569  and  _572
REMARK  242  A    between atoms: _572  and  _573
REMARK  243  A    between atoms: _573  and  _574
REMARK  244  A    between atoms: _577  and  _579
REMARK  245  A    between atoms: _579  and  _580
REMARK  246  A    between atoms: _579  and  _582
REMARK  247  A    between atoms: _585  and  _587
REMARK  248  A    between atoms: _587  and  _588
REMARK  249  A    between atoms: _591  and  _593
REMARK  250  A    between atoms: _593  and  _594
REMARK  251  A    between atoms: _593  and  _596
REMARK  252  A    between atoms: _596  and  _597
REMARK  253  A    between atoms: _597  and  _598
REMARK  254  A    between atoms: _601  and  _603
REMARK  255  A    between atoms: _603  and  _604
REMARK  256  A    between atoms: _606  and  _608
REMARK  257  A    between atoms: _608  and  _609
REMARK  258  A    between atoms: _608  and  _611
REMARK  259  A    between atoms: _611  and  _612
REMARK                            x       y       z     vdW  Elec       q    Type
REMARK                         _______ _______ _______ _____ _____    ______ ____
ROOT
ATOM      1  CA  THR A   5      18.529  72.934  37.500  0.00  0.00    +0.176 C 
ENDROOT
BRANCH   1   4
ATOM      2  C   GLN A   4      18.905  75.130  36.566  0.00  0.00    +0.241 C 
ATOM      3  O   GLN A   4      19.100  75.587  37.693  0.00  0.00    -0.273 OA
ATOM      4  N   THR A   5      18.582  73.854  36.366  0.00  0.00    -0.295 N 
ATOM      5  H   THR A   5      18.368  73.514  35.407  0.00  0.00    +0.150 HD
BRANCH   2   6
ATOM      6  CA  GLN A   4      19.055  76.013  35.322  0.00  0.00    +0.149 C 
BRANCH   6   9
ATOM      7  C   GLY A   3      20.245  74.525  33.808  0.00  0.00    +0.243 C 
ATOM      8  O   GLY A   3      21.217  74.467  34.559  0.00  0.00    -0.273 OA
ATOM      9  N   GLN A   4      19.143  75.208  34.109  0.00  0.00    -0.297 N 
ATOM     10  H   GLN A   4      18.327  75.167  33.465  0.00  0.00    +0.150 HD
BRANCH   7  11
ATOM     11  CA  GLY A   3      20.259  73.812  32.468  0.00  0.00    +0.176 C 
BRANCH  11  14
ATOM     12  C   GLY A   2      18.279  72.435  32.758  0.00  0.00    +0.243 C 
ATOM     13  O   GLY A   2      18.667  72.012  33.853  0.00  0.00    -0.273 OA
ATOM     14  N   GLY A   3      18.954  73.333  32.050  0.00  0.00    -0.295 N 
ATOM     15  H   GLY A   3      18.536  73.703  31.172  0.00  0.00    +0.150 HD
BRANCH  12  16
ATOM     16  CA  GLY A   2      16.983  71.945  32.146  0.00  0.00    +0.176 C 
BRANCH  16  19
ATOM     17  C   VAL A   1      15.843  70.144  33.303  0.00  0.00    +0.238 C 
ATOM     18  O   VAL A   1      15.254  70.930  34.051  0.00  0.00    -0.274 OA
ATOM     19  N   GLY A   2      16.743  70.536  32.408  0.00  0.00    -0.296 N 
ATOM     20  H   GLY A   2      17.287  69.820  31.885  0.00  0.00    +0.150 HD
BRANCH  17  21
ATOM     21  CA  VAL A   1      15.577  68.646  33.390  0.00  0.00    +0.145 C 
BRANCH  21  22
ATOM     22  CB  VAL A   1      14.390  68.269  32.480  0.00  0.00    +0.025 C 
ATOM     23  CG2 VAL A   1      14.038  66.795  32.645  0.00  0.00    +0.002 C 
ATOM     24  CG1 VAL A   1      14.707  68.584  31.011  0.00  0.00    +0.002 C 
ENDBRANCH  21  22
BRANCH  21  25
ATOM     25  N   VAL A   1      15.314  68.306  34.781  0.00  0.00    -0.238 NA
ATOM     26  H   VAL A   1      14.567  68.815  35.295  0.00  0.00    +0.142 HD
ENDBRANCH  21  25
ENDBRANCH  17  21
ENDBRANCH  16  19
ENDBRANCH  12  16
ENDBRANCH  11  14
ENDBRANCH   7  11
ENDBRANCH   6   9
BRANCH   6  27
ATOM     27  CB  GLN A   4      17.915  77.042  35.183  0.00  0.00    +0.039 C 
BRANCH  27  28
ATOM     28  CG  GLN A   4      17.849  78.121  36.245  0.00  0.00    +0.087 C 
BRANCH  28  29
ATOM     29  CD  GLN A   4      19.118  78.948  36.373  0.00  0.00    +0.219 C 
ATOM     30  NE2 GLN A   4      19.909  78.642  37.391  0.00  0.00    -0.329 N 
ATOM     31 HE21 GLN A   4      19.659  77.857  38.026  0.00  0.00    +0.145 HD
ATOM     32 HE22 GLN A   4      20.780  79.187  37.555  0.00  0.00    +0.145 HD
ATOM     33  OE1 GLN A   4      19.368  79.869  35.591  0.00  0.00    -0.275 OA
ENDBRANCH  28  29
ENDBRANCH  27  28
ENDBRANCH   6  27
ENDBRANCH   2   6
ENDBRANCH   1   4
BRANCH   1  34
ATOM     34  C   THR A   5      19.926  72.570  37.994  0.00  0.00    +0.243 C 
ATOM     35  O   THR A   5      20.060  71.895  39.009  0.00  0.00    -0.273 OA
ATOM     36  N   ARG A   6      20.958  73.015  37.277  0.00  0.00    -0.297 N 
ATOM     37  H   ARG A   6      20.778  73.561  36.410  0.00  0.00    +0.150 HD
BRANCH  36  38
ATOM     38  CA  ARG A   6      22.340  72.752  37.683  0.00  0.00    +0.149 C 
BRANCH  38  39
ATOM     39  C   ARG A   6      22.751  73.591  38.901  0.00  0.00    +0.241 C 
ATOM     40  O   ARG A   6      23.777  73.333  39.526  0.00  0.00    -0.273 OA
ATOM     41  N   MET A   7      21.959  74.602  39.230  0.00  0.00    -0.297 N 
ATOM     42  H   MET A   7      21.127  74.818  38.645  0.00  0.00    +0.150 HD
BRANCH  41  43
ATOM     43  CA  MET A   7      22.247  75.415  40.409  0.00  0.00    +0.150 C 
BRANCH  43  44
ATOM     44  C   MET A   7      22.100  74.608  41.705  0.00  0.00    +0.244 C 
ATOM     45  N   PRO A   8      23.148  74.590  42.534  0.00  0.00    -0.273 N 
ATOM     46  CA  PRO A   8      23.088  73.826  43.788  0.00  0.00    +0.140 C 
ATOM     47  CB  PRO A   8      24.395  74.206  44.485  0.00  0.00    +0.030 C 
ATOM     48  CG  PRO A   8      25.336  74.492  43.353  0.00  0.00    +0.024 C 
ATOM     49  CD  PRO A   8      24.478  75.178  42.304  0.00  0.00    +0.094 C 
ATOM     50  O   MET A   7      21.053  74.020  41.966  0.00  0.00    -0.273 OA
BRANCH  46  51
ATOM     51  C   PRO A   8      21.873  74.186  44.654  0.00  0.00    +0.227 C 
ATOM     52  O   PRO A   8      21.219  73.288  45.188  0.00  0.00    -0.286 OA
ENDBRANCH  46  51
ENDBRANCH  43  44
BRANCH  43  53
ATOM     53  CB  MET A   7      21.324  76.636  40.468  0.00  0.00    +0.041 C 
BRANCH  53  54
ATOM     54  CG  MET A   7      21.660  77.574  41.626  0.00  0.00    +0.060 C 
BRANCH  54  55
ATOM     55  SD  MET A   7      20.496  78.946  41.767  0.00  0.00    -0.139 S 
ATOM     56  CE  MET A   7      21.409  80.009  42.902  0.00  0.00    +0.069 C 
ENDBRANCH  54  55
ENDBRANCH  53  54
ENDBRANCH  43  53
ENDBRANCH  41  43
ENDBRANCH  38  39
BRANCH  38  57
ATOM     57  CB  ARG A   6      23.314  72.999  36.532  0.00  0.00    +0.033 C 
BRANCH  57  58
ATOM     58  CG  ARG A   6      23.149  72.037  35.331  0.00  0.00    +0.045 C 
BRANCH  58  59
ATOM     59  CD  ARG A   6      23.977  72.478  34.131  0.00  0.00    +0.174 C 
BRANCH  59  60
ATOM     60  NE  ARG A   6      23.871  71.542  33.007  0.00  0.00    -0.265 N 
ATOM     61  CZ  ARG A   6      24.358  70.303  33.020  0.00  0.00    +0.342 C 
ATOM     62  NH2 ARG A   6      24.983  69.844  34.102  0.00  0.00    -0.292 N 
ATOM     63 HH21 ARG A   6      25.091  70.453  34.938  0.00  0.00    +0.255 HD
ATOM     64 HH22 ARG A   6      25.363  68.876  34.112  0.00  0.00    +0.255 HD
ATOM     65  NH1 ARG A   6      24.218  69.518  31.959  0.00  0.00    -0.292 N 
ATOM     66 HH11 ARG A   6      24.600  68.551  31.974  0.00  0.00    +0.255 HD
ATOM     67 HH12 ARG A   6      23.726  69.870  31.113  0.00  0.00    +0.255 HD
ATOM     68  HE  ARG A   6      23.385  71.866  32.146  0.00  0.00    +0.259 HD
ENDBRANCH  59  60
ENDBRANCH  58  59
ENDBRANCH  57  58
ENDBRANCH  38  57
ENDBRANCH  36  38
ENDBRANCH   1  34
BRANCH   1  69
ATOM     69  CB  THR A   5      17.733  71.634  37.207  0.00  0.00    +0.137 C 
ATOM     70  CG2 THR A   5      16.344  71.953  36.670  0.00  0.00    +0.034 C 
BRANCH  69  71
ATOM     71  OG1 THR A   5      18.447  70.816  36.271  0.00  0.00    -0.382 OA
ATOM     72  HG1 THR A   5      18.573  71.317  35.426  0.00  0.00    +0.210 HD
ENDBRANCH  69  71
ENDBRANCH   1  69
TORSDOF 28
REMARK  Name = ../refined-set-2016/4jne/4jne_pocket.pdb
REMARK  259 active torsions:
REMARK  status: ('A' for Active; 'I' for Inactive)
REMARK    1  A    between atoms: _1  and  _3
REMARK    2  A    between atoms: _3  and  _4
REMARK    3  A    between atoms: _3  and  _6
REMARK    4  A    between atoms: _6  and  _7
REMARK    5  A    between atoms: _10  and  _12
REMARK    6  A    between atoms: _12  and  _13
REMARK    7  A    between atoms: _12  and  _15
REMARK    8  A    between atoms: _15  and  _16
REMARK    9  A    between atoms: _19  and  _21
REMARK   10  A    between atoms: _21  and  _22
REMARK   11  A    between atoms: _24  and  _26
REMARK   12  A    between atoms: _26  and  _27
REMARK   13  A    between atoms: _26  and  _29
REMARK   14  A    between atoms: _29  and  _30
REMARK   15  A    between atoms: _33  and  _35
REMARK   16  A    between atoms: _35  and  _36
REMARK   17  A    between atoms: _35  and  _38
REMARK   18  A    between atoms: _38  and  _39
REMARK   19  A    between atoms: _42  and  _44
REMARK   20  A    between atoms: _44  and  _45
REMARK   21  A    between atoms: _44  and  _47
REMARK   22  A    between atoms: _47  and  _48
REMARK   23  A    between atoms: _53  and  _55
REMARK   24  A    between atoms: _55  and  _56
REMARK   25  A    between atoms: _55  and  _58
REMARK   26  A    between atoms: _58  and  _59
REMARK   27  A    between atoms: _61  and  _63
REMARK   28  A    between atoms: _63  and  _64
REMARK   29  A    between atoms: _63  and  _66
REMARK   30  A    between atoms: _68  and  _70
REMARK   31  A    between atoms: _70  and  _71
REMARK   32  A    between atoms: _70  and  _73
REMARK   33  A    between atoms: _73  and  _74
REMARK   34  A    between atoms: _77  and  _79
REMARK   35  A    between atoms: _79  and  _80
REMARK   36  A    between atoms: _79  and  _82
REMARK   37  A    between atoms: _82  and  _83
REMARK   38  A    between atoms: _87  and  _88
REMARK   39  A    between atoms: _93  and  _95
REMARK   40  A    between atoms: _95  and  _96
REMARK   41  A    between atoms: _95  and  _98
REMARK   42  A    between atoms: _98  and  _99
REMARK   43  A    between atoms: _101  and  _103
REMARK   44  A    between atoms: _103  and  _104
REMARK   45  A    between atoms: _103  and  _106
REMARK   46  A    between atoms: _106  and  _107
REMARK   47  A    between atoms: _107  and  _108
REMARK   48  A    between atoms: _108  and  _109
REMARK   49  A    between atoms: _109  and  _110
REMARK   50  A    between atoms: _114  and  _116
REMARK   51  A    between atoms: _116  and  _117
REMARK   52  A    between atoms: _120  and  _122
REMARK   53  A    between atoms: _122  and  _123
REMARK   54  A    between atoms: _122  and  _125
REMARK   55  A    between atoms: _125  and  _126
REMARK   56  A    between atoms: _126  and  _127
REMARK   57  A    between atoms: _127  and  _128
REMARK   58  A    between atoms: _128  and  _129
REMARK   59  A    between atoms: _133  and  _135
REMARK   60  A    between atoms: _135  and  _136
REMARK   61  A    between atoms: _135  and  _138
REMARK   62  A    between atoms: _138  and  _139
REMARK   63  A    between atoms: _139  and  _140
REMARK   64  A    between atoms: _140  and  _141
REMARK   65  A    between atoms: _150  and  _152
REMARK   66  A    between atoms: _152  and  _153
REMARK   67  A    between atoms: _152  and  _155
REMARK   68  A    between atoms: _155  and  _156
REMARK   69  A    between atoms: _159  and  _161
REMARK   70  A    between atoms: _161  and  _162
REMARK   71  A    between atoms: _161  and  _164
REMARK   72  A    between atoms: _168  and  _169
REMARK   73  A    between atoms: _174  and  _176
REMARK   74  A    between atoms: _176  and  _177
REMARK   75  A    between atoms: _180  and  _182
REMARK   76  A    between atoms: _182  and  _183
REMARK   77  A    between atoms: _182  and  _185
REMARK   78  A    between atoms: _185  and  _186
REMARK   79  A    between atoms: _192  and  _194
REMARK   80  A    between atoms: _194  and  _195
REMARK   81  A    between atoms: _194  and  _197
REMARK   82  A    between atoms: _197  and  _198
REMARK   83  A    between atoms: _198  and  _199
REMARK   84  A    between atoms: _202  and  _204
REMARK   85  A    between atoms: _204  and  _205
REMARK   86  A    between atoms: _204  and  _207
REMARK   87  A    between atoms: _207  and  _208
REMARK   88  A    between atoms: _211  and  _213
REMARK   89  A    between atoms: _213  and  _214
REMARK   90  A    between atoms: _213  and  _216
REMARK   91  A    between atoms: _216  and  _217
REMARK   92  A    between atoms: _220  and  _222
REMARK   93  A    between atoms: _222  and  _223
REMARK   94  A    between atoms: _225  and  _227
REMARK   95  A    between atoms: _227  and  _228
REMARK   96  A    between atoms: _230  and  _232
REMARK   97  A    between atoms: _232  and  _233
REMARK   98  A    between atoms: _235  and  _237
REMARK   99  A    between atoms: _237  and  _238
REMARK  100  A    between atoms: _241  and  _243
REMARK  101  A    between atoms: _243  and  _244
REMARK  102  A    between atoms: _243  and  _246
REMARK  103  A    between atoms: _246  and  _247
REMARK  104  A    between atoms: _253  and  _255
REMARK  105  A    between atoms: _255  and  _256
REMARK  106  A    between atoms: _255  and  _258
REMARK  107  A    between atoms: _258  and  _259
REMARK  108  A    between atoms: _262  and  _264
REMARK  109  A    between atoms: _264  and  _265
REMARK  110  A    between atoms: _264  and  _267
REMARK  111  A    between atoms: _267  and  _268
REMARK  112  A    between atoms: _271  and  _273
REMARK  113  A    between atoms: _273  and  _274
REMARK  114  A    between atoms: _273  and  _276
REMARK  115  A    between atoms: _276  and  _277
REMARK  116  A    between atoms: _280  and  _282
REMARK  117  A    between atoms: _282  and  _283
REMARK  118  A    between atoms: _282  and  _285
REMARK  119  A    between atoms: _285  and  _286
REMARK  120  A    between atoms: _289  and  _291
REMARK  121  A    between atoms: _291  and  _292
REMARK  122  A    between atoms: _294  and  _296
REMARK  123  A    between atoms: _296  and  _297
REMARK  124  A    between atoms: _299  and  _301
REMARK  125  A    between atoms: _301  and  _302
REMARK  126  A    between atoms: _301  and  _304
REMARK  127  A    between atoms: _304  and  _305
REMARK  128  A    between atoms: _305  and  _306
REMARK  129  A    between atoms: _309  and  _311
REMARK  130  A    between atoms: _311  and  _312
REMARK  131  A    between atoms: _311  and  _314
REMARK  132  A    between atoms: _314  and  _315
REMARK  133  A    between atoms: _318  and  _320
REMARK  134  A    between atoms: _320  and  _321
REMARK  135  A    between atoms: _320  and  _323
REMARK  136  A    between atoms: _323  and  _324
REMARK  137  A    between atoms: _330  and  _332
REMARK  138  A    between atoms: _332  and  _333
REMARK  139  A    between atoms: _332  and  _335
REMARK  140  A    between atoms: _335  and  _336
REMARK  141  A    between atoms: _339  and  _341
REMARK  142  A    between atoms: _341  and  _342
REMARK  143  A    between atoms: _341  and  _344
REMARK  144  A    between atoms: _344  and  _345
REMARK  145  A    between atoms: _345  and  _346
REMARK  146  A    between atoms: _346  and  _347
REMARK  147  A    between atoms: _347  and  _348
REMARK  148  A    between atoms: _352  and  _354
REMARK  149  A    between atoms: _354  and  _355
REMARK  150  A    between atoms: _358  and  _360
REMARK  151  A    between atoms: _360  and  _361
REMARK  152  A    between atoms: _360  and  _363
REMARK  153  A    between atoms: _363  and  _364
REMARK  154  A    between atoms: _364  and  _365
REMARK  155  A    between atoms: _368  and  _370
REMARK  156  A    between atoms: _370  and  _371
REMARK  157  A    between atoms: _370  and  _373
REMARK  158  A    between atoms: _373  and  _374
REMARK  159  A    between atoms: _374  and  _375
REMARK  160  A    between atoms: _375  and  _376
REMARK  161  A    between atoms: _376  and  _377
REMARK  162  A    between atoms: _381  and  _383
REMARK  163  A    between atoms: _383  and  _384
REMARK  164  A    between atoms: _387  and  _389
REMARK  165  A    between atoms: _389  and  _390
REMARK  166  A    between atoms: _389  and  _392
REMARK  167  A    between atoms: _392  and  _393
REMARK  168  A    between atoms: _393  and  _394
REMARK  169  A    between atoms: _394  and  _395
REMARK  170  A    between atoms: _395  and  _396
REMARK  171  A    between atoms: _400  and  _402
REMARK  172  A    between atoms: _402  and  _403
REMARK  173  A    between atoms: _402  and  _405
REMARK  174  A    between atoms: _405  and  _406
REMARK  175  A    between atoms: _409  and  _411
REMARK  176  A    between atoms: _411  and  _412
REMARK  177  A    between atoms: _411  and  _414
REMARK  178  A    between atoms: _414  and  _415
REMARK  179  A    between atoms: _415  and  _416
REMARK  180  A    between atoms: _419  and  _421
REMARK  181  A    between atoms: _421  and  _422
REMARK  182  A    between atoms: _421  and  _424
REMARK  183  A    between atoms: _424  and  _425
REMARK  184  A    between atoms: _428  and  _430
REMARK  185  A    between atoms: _430  and  _431
REMARK  186  A    between atoms: _430  and  _433
REMARK  187  A    between atoms: _433  and  _434
REMARK  188  A    between atoms: _436  and  _438
REMARK  189  A    between atoms: _438  and  _439
REMARK  190  A    between atoms: _438  and  _441
REMARK  191  A    between atoms: _441  and  _442
REMARK  192  A    between atoms: _444  and  _446
REMARK  193  A    between atoms: _446  and  _447
REMARK  194  A    between atoms: _450  and  _452
REMARK  195  A    between atoms: _452  and  _453
REMARK  196  A    between atoms: _452  and  _455
REMARK  197  A    between atoms: _455  and  _456
REMARK  198  A    between atoms: _459  and  _461
REMARK  199  A    between atoms: _461  and  _462
REMARK  200  A    between atoms: _461  and  _464
REMARK  201  A    between atoms: _467  and  _469
REMARK  202  A    between atoms: _469  and  _470
REMARK  203  A    between atoms: _472  and  _474
REMARK  204  A    between atoms: _474  and  _475
REMARK  205  A    between atoms: _477  and  _479
REMARK  206  A    between atoms: _479  and  _480
REMARK  207  A    between atoms: _479  and  _482
REMARK  208  A    between atoms: _482  and  _483
REMARK  209  A    between atoms: _483  and  _484
REMARK  210  A    between atoms: _489  and  _491
REMARK  211  A    between atoms: _491  and  _492
REMARK  212  A    between atoms: _491  and  _494
REMARK  213  A    between atoms: _494  and  _495
REMARK  214  A    between atoms: _498  and  _500
REMARK  215  A    between atoms: _500  and  _501
REMARK  216  A    between atoms: _500  and  _503
REMARK  217  A    between atoms: _503  and  _504
REMARK  218  A    between atoms: _504  and  _505
REMARK  219  A    between atoms: _505  and  _506
REMARK  220  A    between atoms: _515  and  _517
REMARK  221  A    between atoms: _517  and  _518
REMARK  222  A    between atoms: _517  and  _520
REMARK  223  A    between atoms: _520  and  _521
REMARK  224  A    between atoms: _521  and  _522
REMARK  225  A    between atoms: _525  and  _526
REMARK  226  A    between atoms: _531  and  _533
REMARK  227  A    between atoms: _533  and  _534
REMARK  228  A    between atoms: _533  and  _536
REMARK  229  A    between atoms: _539  and  _541
REMARK  230  A    between atoms: _541  and  _542
REMARK  231  A    between atoms: _541  and  _544
REMARK  232  A    between atoms: _544  and  _545
REMARK  233  A    between atoms: _545  and  _546
REMARK  234  A    between atoms: _552  and  _553
REMARK  235  A    between atoms: _558  and  _560
REMARK  236  A    between atoms: _560  and  _561
REMARK  237  A    between atoms: _560  and  _563
REMARK  238  A    between atoms: _563  and  _564
REMARK  239  A    between atoms: _567  and  _569
REMARK  240  A    between atoms: _569  and  _570
REMARK  241  A    between atoms: _569  and  _572
REMARK  242  A    between atoms: _572  and  _573
REMARK  243  A    between atoms: _573  and  _574
REMARK  244  A    between atoms: _577  and  _579
REMARK  245  A    between atoms: _579  and  _580
REMARK  246  A    between atoms: _579  and  _582
REMARK  247  A    between atoms: _585  and  _587
REMARK  248  A    between atoms: _587  and  _588
REMARK  249  A    between atoms: _591  and  _593
REMARK  250  A    between atoms: _593  and  _594
REMARK  251  A    between atoms: _593  and  _596
REMARK  252  A    between atoms: _596  and  _597
REMARK  253  A    between atoms: _597  and  _598
REMARK  254  A    between atoms: _601  and  _603
REMARK  255  A    between atoms: _603  and  _604
REMARK  256  A    between atoms: _606  and  _608
REMARK  257  A    between atoms: _608  and  _609
REMARK  258  A    between atoms: _608  and  _611
REMARK  259  A    between atoms: _611  and  _612
REMARK                            x       y       z     vdW  Elec       q    Type
REMARK                         _______ _______ _______ _____ _____    ______ ____
ROOT
ATOM      1  C   VAL A   1      17.741  73.087  43.406  0.00  0.00    +0.238 C 
ATOM      2  O   VAL A   1      16.702  72.594  43.831  0.00  0.00    -0.274 OA
ATOM      3  N   GLN A   2      18.848  72.379  43.237  0.00  0.00    -0.298 N 
ATOM      4  H   GLN A   2      19.709  72.841  42.880  0.00  0.00    +0.150 HD
ENDROOT
BRANCH   1   5
ATOM      5  CA  VAL A   1      17.816  74.566  43.033  0.00  0.00    +0.145 C 
BRANCH   5   6
ATOM      6  CB  VAL A   1      17.803  74.699  41.495  0.00  0.00    +0.025 C 
ATOM      7  CG2 VAL A   1      17.608  76.154  41.089  0.00  0.00    +0.002 C 
ATOM      8  CG1 VAL A   1      16.696  73.835  40.904  0.00  0.00    +0.002 C 
ENDBRANCH   5   6
BRANCH   5   9
ATOM      9  N   VAL A   1      18.986  75.193  43.637  0.00  0.00    -0.238 NA
ATOM     10  H   VAL A   1      19.734  75.591  43.034  0.00  0.00    +0.142 HD
ENDBRANCH   5   9
ENDBRANCH   1   5
BRANCH   3  11
ATOM     11  CA  GLN A   2      18.864  70.960  43.548  0.00  0.00    +0.137 C 
BRANCH  11  12
ATOM     12  C   GLN A   2      18.573  70.721  45.023  0.00  0.00    +0.227 C 
ATOM     13  O   GLN A   2      17.823  69.806  45.384  0.00  0.00    -0.286 OA
ENDBRANCH  11  12
BRANCH  11  14
ATOM     14  CB  GLN A   2      20.213  70.360  43.164  0.00  0.00    +0.037 C 
BRANCH  14  15
ATOM     15  CG  GLN A   2      20.495  70.484  41.672  0.00  0.00    +0.087 C 
BRANCH  15  16
ATOM     16  CD  GLN A   2      21.696  69.685  41.242  0.00  0.00    +0.219 C 
ATOM     17  OE1 GLN A   2      22.458  69.196  42.075  0.00  0.00    -0.275 OA
ATOM     18  NE2 GLN A   2      21.872  69.540  39.932  0.00  0.00    -0.329 N 
ATOM     19 HE21 GLN A   2      22.681  68.994  39.573  0.00  0.00    +0.145 HD
ATOM     20 HE22 GLN A   2      21.200  69.972  39.266  0.00  0.00    +0.145 HD
ENDBRANCH  15  16
ENDBRANCH  14  15
ENDBRANCH  11  14
ENDBRANCH   3  11
TORSDOF 8
REMARK  Name = ../refined-set-2016/4jne/4jne_pocket.pdb
REMARK  259 active torsions:
REMARK  status: ('A' for Active; 'I' for Inactive)
REMARK    1  A    between atoms: _1  and  _3
REMARK    2  A    between atoms: _3  and  _4
REMARK    3  A    between atoms: _3  and  _6
REMARK    4  A    between atoms: _6  and  _7
REMARK    5  A    between atoms: _10  and  _12
REMARK    6  A    between atoms: _12  and  _13
REMARK    7  A    between atoms: _12  and  _15
REMARK    8  A    between atoms: _15  and  _16
REMARK    9  A    between atoms: _19  and  _21
REMARK   10  A    between atoms: _21  and  _22
REMARK   11  A    between atoms: _24  and  _26
REMARK   12  A    between atoms: _26  and  _27
REMARK   13  A    between atoms: _26  and  _29
REMARK   14  A    between atoms: _29  and  _30
REMARK   15  A    between atoms: _33  and  _35
REMARK   16  A    between atoms: _35  and  _36
REMARK   17  A    between atoms: _35  and  _38
REMARK   18  A    between atoms: _38  and  _39
REMARK   19  A    between atoms: _42  and  _44
REMARK   20  A    between atoms: _44  and  _45
REMARK   21  A    between atoms: _44  and  _47
REMARK   22  A    between atoms: _47  and  _48
REMARK   23  A    between atoms: _53  and  _55
REMARK   24  A    between atoms: _55  and  _56
REMARK   25  A    between atoms: _55  and  _58
REMARK   26  A    between atoms: _58  and  _59
REMARK   27  A    between atoms: _61  and  _63
REMARK   28  A    between atoms: _63  and  _64
REMARK   29  A    between atoms: _63  and  _66
REMARK   30  A    between atoms: _68  and  _70
REMARK   31  A    between atoms: _70  and  _71
REMARK   32  A    between atoms: _70  and  _73
REMARK   33  A    between atoms: _73  and  _74
REMARK   34  A    between atoms: _77  and  _79
REMARK   35  A    between atoms: _79  and  _80
REMARK   36  A    between atoms: _79  and  _82
REMARK   37  A    between atoms: _82  and  _83
REMARK   38  A    between atoms: _87  and  _88
REMARK   39  A    between atoms: _93  and  _95
REMARK   40  A    between atoms: _95  and  _96
REMARK   41  A    between atoms: _95  and  _98
REMARK   42  A    between atoms: _98  and  _99
REMARK   43  A    between atoms: _101  and  _103
REMARK   44  A    between atoms: _103  and  _104
REMARK   45  A    between atoms: _103  and  _106
REMARK   46  A    between atoms: _106  and  _107
REMARK   47  A    between atoms: _107  and  _108
REMARK   48  A    between atoms: _108  and  _109
REMARK   49  A    between atoms: _109  and  _110
REMARK   50  A    between atoms: _114  and  _116
REMARK   51  A    between atoms: _116  and  _117
REMARK   52  A    between atoms: _120  and  _122
REMARK   53  A    between atoms: _122  and  _123
REMARK   54  A    between atoms: _122  and  _125
REMARK   55  A    between atoms: _125  and  _126
REMARK   56  A    between atoms: _126  and  _127
REMARK   57  A    between atoms: _127  and  _128
REMARK   58  A    between atoms: _128  and  _129
REMARK   59  A    between atoms: _133  and  _135
REMARK   60  A    between atoms: _135  and  _136
REMARK   61  A    between atoms: _135  and  _138
REMARK   62  A    between atoms: _138  and  _139
REMARK   63  A    between atoms: _139  and  _140
REMARK   64  A    between atoms: _140  and  _141
REMARK   65  A    between atoms: _150  and  _152
REMARK   66  A    between atoms: _152  and  _153
REMARK   67  A    between atoms: _152  and  _155
REMARK   68  A    between atoms: _155  and  _156
REMARK   69  A    between atoms: _159  and  _161
REMARK   70  A    between atoms: _161  and  _162
REMARK   71  A    between atoms: _161  and  _164
REMARK   72  A    between atoms: _168  and  _169
REMARK   73  A    between atoms: _174  and  _176
REMARK   74  A    between atoms: _176  and  _177
REMARK   75  A    between atoms: _180  and  _182
REMARK   76  A    between atoms: _182  and  _183
REMARK   77  A    between atoms: _182  and  _185
REMARK   78  A    between atoms: _185  and  _186
REMARK   79  A    between atoms: _192  and  _194
REMARK   80  A    between atoms: _194  and  _195
REMARK   81  A    between atoms: _194  and  _197
REMARK   82  A    between atoms: _197  and  _198
REMARK   83  A    between atoms: _198  and  _199
REMARK   84  A    between atoms: _202  and  _204
REMARK   85  A    between atoms: _204  and  _205
REMARK   86  A    between atoms: _204  and  _207
REMARK   87  A    between atoms: _207  and  _208
REMARK   88  A    between atoms: _211  and  _213
REMARK   89  A    between atoms: _213  and  _214
REMARK   90  A    between atoms: _213  and  _216
REMARK   91  A    between atoms: _216  and  _217
REMARK   92  A    between atoms: _220  and  _222
REMARK   93  A    between atoms: _222  and  _223
REMARK   94  A    between atoms: _225  and  _227
REMARK   95  A    between atoms: _227  and  _228
REMARK   96  A    between atoms: _230  and  _232
REMARK   97  A    between atoms: _232  and  _233
REMARK   98  A    between atoms: _235  and  _237
REMARK   99  A    between atoms: _237  and  _238
REMARK  100  A    between atoms: _241  and  _243
REMARK  101  A    between atoms: _243  and  _244
REMARK  102  A    between atoms: _243  and  _246
REMARK  103  A    between atoms: _246  and  _247
REMARK  104  A    between atoms: _253  and  _255
REMARK  105  A    between atoms: _255  and  _256
REMARK  106  A    between atoms: _255  and  _258
REMARK  107  A    between atoms: _258  and  _259
REMARK  108  A    between atoms: _262  and  _264
REMARK  109  A    between atoms: _264  and  _265
REMARK  110  A    between atoms: _264  and  _267
REMARK  111  A    between atoms: _267  and  _268
REMARK  112  A    between atoms: _271  and  _273
REMARK  113  A    between atoms: _273  and  _274
REMARK  114  A    between atoms: _273  and  _276
REMARK  115  A    between atoms: _276  and  _277
REMARK  116  A    between atoms: _280  and  _282
REMARK  117  A    between atoms: _282  and  _283
REMARK  118  A    between atoms: _282  and  _285
REMARK  119  A    between atoms: _285  and  _286
REMARK  120  A    between atoms: _289  and  _291
REMARK  121  A    between atoms: _291  and  _292
REMARK  122  A    between atoms: _294  and  _296
REMARK  123  A    between atoms: _296  and  _297
REMARK  124  A    between atoms: _299  and  _301
REMARK  125  A    between atoms: _301  and  _302
REMARK  126  A    between atoms: _301  and  _304
REMARK  127  A    between atoms: _304  and  _305
REMARK  128  A    between atoms: _305  and  _306
REMARK  129  A    between atoms: _309  and  _311
REMARK  130  A    between atoms: _311  and  _312
REMARK  131  A    between atoms: _311  and  _314
REMARK  132  A    between atoms: _314  and  _315
REMARK  133  A    between atoms: _318  and  _320
REMARK  134  A    between atoms: _320  and  _321
REMARK  135  A    between atoms: _320  and  _323
REMARK  136  A    between atoms: _323  and  _324
REMARK  137  A    between atoms: _330  and  _332
REMARK  138  A    between atoms: _332  and  _333
REMARK  139  A    between atoms: _332  and  _335
REMARK  140  A    between atoms: _335  and  _336
REMARK  141  A    between atoms: _339  and  _341
REMARK  142  A    between atoms: _341  and  _342
REMARK  143  A    between atoms: _341  and  _344
REMARK  144  A    between atoms: _344  and  _345
REMARK  145  A    between atoms: _345  and  _346
REMARK  146  A    between atoms: _346  and  _347
REMARK  147  A    between atoms: _347  and  _348
REMARK  148  A    between atoms: _352  and  _354
REMARK  149  A    between atoms: _354  and  _355
REMARK  150  A    between atoms: _358  and  _360
REMARK  151  A    between atoms: _360  and  _361
REMARK  152  A    between atoms: _360  and  _363
REMARK  153  A    between atoms: _363  and  _364
REMARK  154  A    between atoms: _364  and  _365
REMARK  155  A    between atoms: _368  and  _370
REMARK  156  A    between atoms: _370  and  _371
REMARK  157  A    between atoms: _370  and  _373
REMARK  158  A    between atoms: _373  and  _374
REMARK  159  A    between atoms: _374  and  _375
REMARK  160  A    between atoms: _375  and  _376
REMARK  161  A    between atoms: _376  and  _377
REMARK  162  A    between atoms: _381  and  _383
REMARK  163  A    between atoms: _383  and  _384
REMARK  164  A    between atoms: _387  and  _389
REMARK  165  A    between atoms: _389  and  _390
REMARK  166  A    between atoms: _389  and  _392
REMARK  167  A    between atoms: _392  and  _393
REMARK  168  A    between atoms: _393  and  _394
REMARK  169  A    between atoms: _394  and  _395
REMARK  170  A    between atoms: _395  and  _396
REMARK  171  A    between atoms: _400  and  _402
REMARK  172  A    between atoms: _402  and  _403
REMARK  173  A    between atoms: _402  and  _405
REMARK  174  A    between atoms: _405  and  _406
REMARK  175  A    between atoms: _409  and  _411
REMARK  176  A    between atoms: _411  and  _412
REMARK  177  A    between atoms: _411  and  _414
REMARK  178  A    between atoms: _414  and  _415
REMARK  179  A    between atoms: _415  and  _416
REMARK  180  A    between atoms: _419  and  _421
REMARK  181  A    between atoms: _421  and  _422
REMARK  182  A    between atoms: _421  and  _424
REMARK  183  A    between atoms: _424  and  _425
REMARK  184  A    between atoms: _428  and  _430
REMARK  185  A    between atoms: _430  and  _431
REMARK  186  A    between atoms: _430  and  _433
REMARK  187  A    between atoms: _433  and  _434
REMARK  188  A    between atoms: _436  and  _438
REMARK  189  A    between atoms: _438  and  _439
REMARK  190  A    between atoms: _438  and  _441
REMARK  191  A    between atoms: _441  and  _442
REMARK  192  A    between atoms: _444  and  _446
REMARK  193  A    between atoms: _446  and  _447
REMARK  194  A    between atoms: _450  and  _452
REMARK  195  A    between atoms: _452  and  _453
REMARK  196  A    between atoms: _452  and  _455
REMARK  197  A    between atoms: _455  and  _456
REMARK  198  A    between atoms: _459  and  _461
REMARK  199  A    between atoms: _461  and  _462
REMARK  200  A    between atoms: _461  and  _464
REMARK  201  A    between atoms: _467  and  _469
REMARK  202  A    between atoms: _469  and  _470
REMARK  203  A    between atoms: _472  and  _474
REMARK  204  A    between atoms: _474  and  _475
REMARK  205  A    between atoms: _477  and  _479
REMARK  206  A    between atoms: _479  and  _480
REMARK  207  A    between atoms: _479  and  _482
REMARK  208  A    between atoms: _482  and  _483
REMARK  209  A    between atoms: _483  and  _484
REMARK  210  A    between atoms: _489  and  _491
REMARK  211  A    between atoms: _491  and  _492
REMARK  212  A    between atoms: _491  and  _494
REMARK  213  A    between atoms: _494  and  _495
REMARK  214  A    between atoms: _498  and  _500
REMARK  215  A    between atoms: _500  and  _501
REMARK  216  A    between atoms: _500  and  _503
REMARK  217  A    between atoms: _503  and  _504
REMARK  218  A    between atoms: _504  and  _505
REMARK  219  A    between atoms: _505  and  _506
REMARK  220  A    between atoms: _515  and  _517
REMARK  221  A    between atoms: _517  and  _518
REMARK  222  A    between atoms: _517  and  _520
REMARK  223  A    between atoms: _520  and  _521
REMARK  224  A    between atoms: _521  and  _522
REMARK  225  A    between atoms: _525  and  _526
REMARK  226  A    between atoms: _531  and  _533
REMARK  227  A    between atoms: _533  and  _534
REMARK  228  A    between atoms: _533  and  _536
REMARK  229  A    between atoms: _539  and  _541
REMARK  230  A    between atoms: _541  and  _542
REMARK  231  A    between atoms: _541  and  _544
REMARK  232  A    between atoms: _544  and  _545
REMARK  233  A    between atoms: _545  and  _546
REMARK  234  A    between atoms: _552  and  _553
REMARK  235  A    between atoms: _558  and  _560
REMARK  236  A    between atoms: _560  and  _561
REMARK  237  A    between atoms: _560  and  _563
REMARK  238  A    between atoms: _563  and  _564
REMARK  239  A    between atoms: _567  and  _569
REMARK  240  A    between atoms: _569  and  _570
REMARK  241  A    between atoms: _569  and  _572
REMARK  242  A    between atoms: _572  and  _573
REMARK  243  A    between atoms: _573  and  _574
REMARK  244  A    between atoms: _577  and  _579
REMARK  245  A    between atoms: _579  and  _580
REMARK  246  A    between atoms: _579  and  _582
REMARK  247  A    between atoms: _585  and  _587
REMARK  248  A    between atoms: _587  and  _588
REMARK  249  A    between atoms: _591  and  _593
REMARK  250  A    between atoms: _593  and  _594
REMARK  251  A    between atoms: _593  and  _596
REMARK  252  A    between atoms: _596  and  _597
REMARK  253  A    between atoms: _597  and  _598
REMARK  254  A    between atoms: _601  and  _603
REMARK  255  A    between atoms: _603  and  _604
REMARK  256  A    between atoms: _606  and  _608
REMARK  257  A    between atoms: _608  and  _609
REMARK  258  A    between atoms: _608  and  _611
REMARK  259  A    between atoms: _611  and  _612
REMARK                            x       y       z     vdW  Elec       q    Type
REMARK                         _______ _______ _______ _____ _____    ______ ____
ROOT
ATOM      1  CA  ASP A   2      19.937  68.897  27.959  0.00  0.00    +0.160 C 
ENDROOT
BRANCH   1   4
ATOM      2  C   PRO A   1      19.050  68.367  30.167  0.00  0.00    +0.239 C 
ATOM      3  O   PRO A   1      18.193  69.251  30.099  0.00  0.00    -0.274 OA
ATOM      4  N   ASP A   2      19.918  68.111  29.192  0.00  0.00    -0.297 N 
ATOM      5  H   ASP A   2      20.599  67.334  29.309  0.00  0.00    +0.150 HD
BRANCH   2  10
ATOM      6  N   PRO A   1      20.014  66.337  31.264  0.00  0.00    -0.210 NA
ATOM      7  CD  PRO A   1      21.265  66.477  32.037  0.00  0.00    +0.089 C 
ATOM      8  CG  PRO A   1      21.237  67.919  32.479  0.00  0.00    +0.021 C 
ATOM      9  CB  PRO A   1      19.785  68.282  32.566  0.00  0.00    +0.028 C 
ATOM     10  CA  PRO A   1      19.131  67.501  31.420  0.00  0.00    +0.149 C 
ENDBRANCH   2  10
ENDBRANCH   1   4
BRANCH   1  11
ATOM     11  C   ASP A   2      19.317  68.174  26.780  0.00  0.00    +0.241 C 
ATOM     12  N   GLU A   3      19.234  66.851  26.870  0.00  0.00    -0.298 N 
ATOM     13  H   GLU A   3      19.433  66.384  27.778  0.00  0.00    +0.150 HD
ATOM     14  O   ASP A   2      18.917  68.808  25.805  0.00  0.00    -0.273 OA
BRANCH  12  15
ATOM     15  CA  GLU A   3      18.867  66.047  25.709  0.00  0.00    +0.137 C 
BRANCH  15  16
ATOM     16  C   GLU A   3      17.649  65.151  25.908  0.00  0.00    +0.227 C 
ATOM     17  O   GLU A   3      17.121  64.604  24.941  0.00  0.00    -0.286 OA
ENDBRANCH  15  16
BRANCH  15  18
ATOM     18  CB  GLU A   3      20.072  65.213  25.259  0.00  0.00    +0.039 C 
BRANCH  18  19
ATOM     19  CG  GLU A   3      21.277  66.064  24.843  0.00  0.00    +0.116 C 
BRANCH  19  20
ATOM     20  CD  GLU A   3      22.452  65.226  24.337  0.00  0.00    +0.365 C 
ATOM     21  OE2 GLU A   3      23.548  65.787  24.146  0.00  0.00    -0.246 OA
ATOM     22  OE1 GLU A   3      22.284  64.012  24.129  0.00  0.00    -0.246 OA
ENDBRANCH  19  20
ENDBRANCH  18  19
ENDBRANCH  15  18
ENDBRANCH  12  15
ENDBRANCH   1  11
BRANCH   1  23
ATOM     23  CB  ASP A   2      21.370  69.283  27.591  0.00  0.00    +0.143 C 
BRANCH  23  24
ATOM     24  CG  ASP A   2      22.058  70.052  28.694  0.00  0.00    +0.367 C 
ATOM     25  OD2 ASP A   2      23.022  69.522  29.288  0.00  0.00    -0.246 OA
ATOM     26  OD1 ASP A   2      21.627  71.186  28.962  0.00  0.00    -0.246 OA
ENDBRANCH  23  24
ENDBRANCH   1  23
TORSDOF 10
REMARK  Name = ../refined-set-2016/4jne/4jne_pocket.pdb
REMARK  259 active torsions:
REMARK  status: ('A' for Active; 'I' for Inactive)
REMARK    1  A    between atoms: _1  and  _3
REMARK    2  A    between atoms: _3  and  _4
REMARK    3  A    between atoms: _3  and  _6
REMARK    4  A    between atoms: _6  and  _7
REMARK    5  A    between atoms: _10  and  _12
REMARK    6  A    between atoms: _12  and  _13
REMARK    7  A    between atoms: _12  and  _15
REMARK    8  A    between atoms: _15  and  _16
REMARK    9  A    between atoms: _19  and  _21
REMARK   10  A    between atoms: _21  and  _22
REMARK   11  A    between atoms: _24  and  _26
REMARK   12  A    between atoms: _26  and  _27
REMARK   13  A    between atoms: _26  and  _29
REMARK   14  A    between atoms: _29  and  _30
REMARK   15  A    between atoms: _33  and  _35
REMARK   16  A    between atoms: _35  and  _36
REMARK   17  A    between atoms: _35  and  _38
REMARK   18  A    between atoms: _38  and  _39
REMARK   19  A    between atoms: _42  and  _44
REMARK   20  A    between atoms: _44  and  _45
REMARK   21  A    between atoms: _44  and  _47
REMARK   22  A    between atoms: _47  and  _48
REMARK   23  A    between atoms: _53  and  _55
REMARK   24  A    between atoms: _55  and  _56
REMARK   25  A    between atoms: _55  and  _58
REMARK   26  A    between atoms: _58  and  _59
REMARK   27  A    between atoms: _61  and  _63
REMARK   28  A    between atoms: _63  and  _64
REMARK   29  A    between atoms: _63  and  _66
REMARK   30  A    between atoms: _68  and  _70
REMARK   31  A    between atoms: _70  and  _71
REMARK   32  A    between atoms: _70  and  _73
REMARK   33  A    between atoms: _73  and  _74
REMARK   34  A    between atoms: _77  and  _79
REMARK   35  A    between atoms: _79  and  _80
REMARK   36  A    between atoms: _79  and  _82
REMARK   37  A    between atoms: _82  and  _83
REMARK   38  A    between atoms: _87  and  _88
REMARK   39  A    between atoms: _93  and  _95
REMARK   40  A    between atoms: _95  and  _96
REMARK   41  A    between atoms: _95  and  _98
REMARK   42  A    between atoms: _98  and  _99
REMARK   43  A    between atoms: _101  and  _103
REMARK   44  A    between atoms: _103  and  _104
REMARK   45  A    between atoms: _103  and  _106
REMARK   46  A    between atoms: _106  and  _107
REMARK   47  A    between atoms: _107  and  _108
REMARK   48  A    between atoms: _108  and  _109
REMARK   49  A    between atoms: _109  and  _110
REMARK   50  A    between atoms: _114  and  _116
REMARK   51  A    between atoms: _116  and  _117
REMARK   52  A    between atoms: _120  and  _122
REMARK   53  A    between atoms: _122  and  _123
REMARK   54  A    between atoms: _122  and  _125
REMARK   55  A    between atoms: _125  and  _126
REMARK   56  A    between atoms: _126  and  _127
REMARK   57  A    between atoms: _127  and  _128
REMARK   58  A    between atoms: _128  and  _129
REMARK   59  A    between atoms: _133  and  _135
REMARK   60  A    between atoms: _135  and  _136
REMARK   61  A    between atoms: _135  and  _138
REMARK   62  A    between atoms: _138  and  _139
REMARK   63  A    between atoms: _139  and  _140
REMARK   64  A    between atoms: _140  and  _141
REMARK   65  A    between atoms: _150  and  _152
REMARK   66  A    between atoms: _152  and  _153
REMARK   67  A    between atoms: _152  and  _155
REMARK   68  A    between atoms: _155  and  _156
REMARK   69  A    between atoms: _159  and  _161
REMARK   70  A    between atoms: _161  and  _162
REMARK   71  A    between atoms: _161  and  _164
REMARK   72  A    between atoms: _168  and  _169
REMARK   73  A    between atoms: _174  and  _176
REMARK   74  A    between atoms: _176  and  _177
REMARK   75  A    between atoms: _180  and  _182
REMARK   76  A    between atoms: _182  and  _183
REMARK   77  A    between atoms: _182  and  _185
REMARK   78  A    between atoms: _185  and  _186
REMARK   79  A    between atoms: _192  and  _194
REMARK   80  A    between atoms: _194  and  _195
REMARK   81  A    between atoms: _194  and  _197
REMARK   82  A    between atoms: _197  and  _198
REMARK   83  A    between atoms: _198  and  _199
REMARK   84  A    between atoms: _202  and  _204
REMARK   85  A    between atoms: _204  and  _205
REMARK   86  A    between atoms: _204  and  _207
REMARK   87  A    between atoms: _207  and  _208
REMARK   88  A    between atoms: _211  and  _213
REMARK   89  A    between atoms: _213  and  _214
REMARK   90  A    between atoms: _213  and  _216
REMARK   91  A    between atoms: _216  and  _217
REMARK   92  A    between atoms: _220  and  _222
REMARK   93  A    between atoms: _222  and  _223
REMARK   94  A    between atoms: _225  and  _227
REMARK   95  A    between atoms: _227  and  _228
REMARK   96  A    between atoms: _230  and  _232
REMARK   97  A    between atoms: _232  and  _233
REMARK   98  A    between atoms: _235  and  _237
REMARK   99  A    between atoms: _237  and  _238
REMARK  100  A    between atoms: _241  and  _243
REMARK  101  A    between atoms: _243  and  _244
REMARK  102  A    between atoms: _243  and  _246
REMARK  103  A    between atoms: _246  and  _247
REMARK  104  A    between atoms: _253  and  _255
REMARK  105  A    between atoms: _255  and  _256
REMARK  106  A    between atoms: _255  and  _258
REMARK  107  A    between atoms: _258  and  _259
REMARK  108  A    between atoms: _262  and  _264
REMARK  109  A    between atoms: _264  and  _265
REMARK  110  A    between atoms: _264  and  _267
REMARK  111  A    between atoms: _267  and  _268
REMARK  112  A    between atoms: _271  and  _273
REMARK  113  A    between atoms: _273  and  _274
REMARK  114  A    between atoms: _273  and  _276
REMARK  115  A    between atoms: _276  and  _277
REMARK  116  A    between atoms: _280  and  _282
REMARK  117  A    between atoms: _282  and  _283
REMARK  118  A    between atoms: _282  and  _285
REMARK  119  A    between atoms: _285  and  _286
REMARK  120  A    between atoms: _289  and  _291
REMARK  121  A    between atoms: _291  and  _292
REMARK  122  A    between atoms: _294  and  _296
REMARK  123  A    between atoms: _296  and  _297
REMARK  124  A    between atoms: _299  and  _301
REMARK  125  A    between atoms: _301  and  _302
REMARK  126  A    between atoms: _301  and  _304
REMARK  127  A    between atoms: _304  and  _305
REMARK  128  A    between atoms: _305  and  _306
REMARK  129  A    between atoms: _309  and  _311
REMARK  130  A    between atoms: _311  and  _312
REMARK  131  A    between atoms: _311  and  _314
REMARK  132  A    between atoms: _314  and  _315
REMARK  133  A    between atoms: _318  and  _320
REMARK  134  A    between atoms: _320  and  _321
REMARK  135  A    between atoms: _320  and  _323
REMARK  136  A    between atoms: _323  and  _324
REMARK  137  A    between atoms: _330  and  _332
REMARK  138  A    between atoms: _332  and  _333
REMARK  139  A    between atoms: _332  and  _335
REMARK  140  A    between atoms: _335  and  _336
REMARK  141  A    between atoms: _339  and  _341
REMARK  142  A    between atoms: _341  and  _342
REMARK  143  A    between atoms: _341  and  _344
REMARK  144  A    between atoms: _344  and  _345
REMARK  145  A    between atoms: _345  and  _346
REMARK  146  A    between atoms: _346  and  _347
REMARK  147  A    between atoms: _347  and  _348
REMARK  148  A    between atoms: _352  and  _354
REMARK  149  A    between atoms: _354  and  _355
REMARK  150  A    between atoms: _358  and  _360
REMARK  151  A    between atoms: _360  and  _361
REMARK  152  A    between atoms: _360  and  _363
REMARK  153  A    between atoms: _363  and  _364
REMARK  154  A    between atoms: _364  and  _365
REMARK  155  A    between atoms: _368  and  _370
REMARK  156  A    between atoms: _370  and  _371
REMARK  157  A    between atoms: _370  and  _373
REMARK  158  A    between atoms: _373  and  _374
REMARK  159  A    between atoms: _374  and  _375
REMARK  160  A    between atoms: _375  and  _376
REMARK  161  A    between atoms: _376  and  _377
REMARK  162  A    between atoms: _381  and  _383
REMARK  163  A    between atoms: _383  and  _384
REMARK  164  A    between atoms: _387  and  _389
REMARK  165  A    between atoms: _389  and  _390
REMARK  166  A    between atoms: _389  and  _392
REMARK  167  A    between atoms: _392  and  _393
REMARK  168  A    between atoms: _393  and  _394
REMARK  169  A    between atoms: _394  and  _395
REMARK  170  A    between atoms: _395  and  _396
REMARK  171  A    between atoms: _400  and  _402
REMARK  172  A    between atoms: _402  and  _403
REMARK  173  A    between atoms: _402  and  _405
REMARK  174  A    between atoms: _405  and  _406
REMARK  175  A    between atoms: _409  and  _411
REMARK  176  A    between atoms: _411  and  _412
REMARK  177  A    between atoms: _411  and  _414
REMARK  178  A    between atoms: _414  and  _415
REMARK  179  A    between atoms: _415  and  _416
REMARK  180  A    between atoms: _419  and  _421
REMARK  181  A    between atoms: _421  and  _422
REMARK  182  A    between atoms: _421  and  _424
REMARK  183  A    between atoms: _424  and  _425
REMARK  184  A    between atoms: _428  and  _430
REMARK  185  A    between atoms: _430  and  _431
REMARK  186  A    between atoms: _430  and  _433
REMARK  187  A    between atoms: _433  and  _434
REMARK  188  A    between atoms: _436  and  _438
REMARK  189  A    between atoms: _438  and  _439
REMARK  190  A    between atoms: _438  and  _441
REMARK  191  A    between atoms: _441  and  _442
REMARK  192  A    between atoms: _444  and  _446
REMARK  193  A    between atoms: _446  and  _447
REMARK  194  A    between atoms: _450  and  _452
REMARK  195  A    between atoms: _452  and  _453
REMARK  196  A    between atoms: _452  and  _455
REMARK  197  A    between atoms: _455  and  _456
REMARK  198  A    between atoms: _459  and  _461
REMARK  199  A    between atoms: _461  and  _462
REMARK  200  A    between atoms: _461  and  _464
REMARK  201  A    between atoms: _467  and  _469
REMARK  202  A    between atoms: _469  and  _470
REMARK  203  A    between atoms: _472  and  _474
REMARK  204  A    between atoms: _474  and  _475
REMARK  205  A    between atoms: _477  and  _479
REMARK  206  A    between atoms: _479  and  _480
REMARK  207  A    between atoms: _479  and  _482
REMARK  208  A    between atoms: _482  and  _483
REMARK  209  A    between atoms: _483  and  _484
REMARK  210  A    between atoms: _489  and  _491
REMARK  211  A    between atoms: _491  and  _492
REMARK  212  A    between atoms: _491  and  _494
REMARK  213  A    between atoms: _494  and  _495
REMARK  214  A    between atoms: _498  and  _500
REMARK  215  A    between atoms: _500  and  _501
REMARK  216  A    between atoms: _500  and  _503
REMARK  217  A    between atoms: _503  and  _504
REMARK  218  A    between atoms: _504  and  _505
REMARK  219  A    between atoms: _505  and  _506
REMARK  220  A    between atoms: _515  and  _517
REMARK  221  A    between atoms: _517  and  _518
REMARK  222  A    between atoms: _517  and  _520
REMARK  223  A    between atoms: _520  and  _521
REMARK  224  A    between atoms: _521  and  _522
REMARK  225  A    between atoms: _525  and  _526
REMARK  226  A    between atoms: _531  and  _533
REMARK  227  A    between atoms: _533  and  _534
REMARK  228  A    between atoms: _533  and  _536
REMARK  229  A    between atoms: _539  and  _541
REMARK  230  A    between atoms: _541  and  _542
REMARK  231  A    between atoms: _541  and  _544
REMARK  232  A    between atoms: _544  and  _545
REMARK  233  A    between atoms: _545  and  _546
REMARK  234  A    between atoms: _552  and  _553
REMARK  235  A    between atoms: _558  and  _560
REMARK  236  A    between atoms: _560  and  _561
REMARK  237  A    between atoms: _560  and  _563
REMARK  238  A    between atoms: _563  and  _564
REMARK  239  A    between atoms: _567  and  _569
REMARK  240  A    between atoms: _569  and  _570
REMARK  241  A    between atoms: _569  and  _572
REMARK  242  A    between atoms: _572  and  _573
REMARK  243  A    between atoms: _573  and  _574
REMARK  244  A    between atoms: _577  and  _579
REMARK  245  A    between atoms: _579  and  _580
REMARK  246  A    between atoms: _579  and  _582
REMARK  247  A    between atoms: _585  and  _587
REMARK  248  A    between atoms: _587  and  _588
REMARK  249  A    between atoms: _591  and  _593
REMARK  250  A    between atoms: _593  and  _594
REMARK  251  A    between atoms: _593  and  _596
REMARK  252  A    between atoms: _596  and  _597
REMARK  253  A    between atoms: _597  and  _598
REMARK  254  A    between atoms: _601  and  _603
REMARK  255  A    between atoms: _603  and  _604
REMARK  256  A    between atoms: _606  and  _608
REMARK  257  A    between atoms: _608  and  _609
REMARK  258  A    between atoms: _608  and  _611
REMARK  259  A    between atoms: _611  and  _612
REMARK                            x       y       z     vdW  Elec       q    Type
REMARK                         _______ _______ _______ _____ _____    ______ ____
ROOT
ATOM      1  CA  VAL A   1      13.393  66.281  25.971  0.00  0.00    +0.133 C 
ENDROOT
BRANCH   1   2
ATOM      2  CB  VAL A   1      13.198  67.787  26.260  0.00  0.00    +0.023 C 
ATOM      3  CG2 VAL A   1      12.881  68.014  27.750  0.00  0.00    +0.002 C 
ATOM      4  CG1 VAL A   1      12.097  68.370  25.387  0.00  0.00    +0.002 C 
ENDBRANCH   1   2
BRANCH   1   5
ATOM      5  N   VAL A   1      14.605  65.773  26.595  0.00  0.00    -0.239 NA
ATOM      6  H   VAL A   1      15.299  66.445  26.981  0.00  0.00    +0.142 HD
ENDBRANCH   1   5
BRANCH   1   7
ATOM      7  C   VAL A   1      13.382  65.984  24.460  0.00  0.00    +0.224 C 
ATOM      8  O   VAL A   1      12.385  65.503  23.924  0.00  0.00    -0.287 OA
ENDBRANCH   1   7
TORSDOF 3
REMARK  Name = ../refined-set-2016/4jne/4jne_pocket.pdb
REMARK  259 active torsions:
REMARK  status: ('A' for Active; 'I' for Inactive)
REMARK    1  A    between atoms: _1  and  _3
REMARK    2  A    between atoms: _3  and  _4
REMARK    3  A    between atoms: _3  and  _6
REMARK    4  A    between atoms: _6  and  _7
REMARK    5  A    between atoms: _10  and  _12
REMARK    6  A    between atoms: _12  and  _13
REMARK    7  A    between atoms: _12  and  _15
REMARK    8  A    between atoms: _15  and  _16
REMARK    9  A    between atoms: _19  and  _21
REMARK   10  A    between atoms: _21  and  _22
REMARK   11  A    between atoms: _24  and  _26
REMARK   12  A    between atoms: _26  and  _27
REMARK   13  A    between atoms: _26  and  _29
REMARK   14  A    between atoms: _29  and  _30
REMARK   15  A    between atoms: _33  and  _35
REMARK   16  A    between atoms: _35  and  _36
REMARK   17  A    between atoms: _35  and  _38
REMARK   18  A    between atoms: _38  and  _39
REMARK   19  A    between atoms: _42  and  _44
REMARK   20  A    between atoms: _44  and  _45
REMARK   21  A    between atoms: _44  and  _47
REMARK   22  A    between atoms: _47  and  _48
REMARK   23  A    between atoms: _53  and  _55
REMARK   24  A    between atoms: _55  and  _56
REMARK   25  A    between atoms: _55  and  _58
REMARK   26  A    between atoms: _58  and  _59
REMARK   27  A    between atoms: _61  and  _63
REMARK   28  A    between atoms: _63  and  _64
REMARK   29  A    between atoms: _63  and  _66
REMARK   30  A    between atoms: _68  and  _70
REMARK   31  A    between atoms: _70  and  _71
REMARK   32  A    between atoms: _70  and  _73
REMARK   33  A    between atoms: _73  and  _74
REMARK   34  A    between atoms: _77  and  _79
REMARK   35  A    between atoms: _79  and  _80
REMARK   36  A    between atoms: _79  and  _82
REMARK   37  A    between atoms: _82  and  _83
REMARK   38  A    between atoms: _87  and  _88
REMARK   39  A    between atoms: _93  and  _95
REMARK   40  A    between atoms: _95  and  _96
REMARK   41  A    between atoms: _95  and  _98
REMARK   42  A    between atoms: _98  and  _99
REMARK   43  A    between atoms: _101  and  _103
REMARK   44  A    between atoms: _103  and  _104
REMARK   45  A    between atoms: _103  and  _106
REMARK   46  A    between atoms: _106  and  _107
REMARK   47  A    between atoms: _107  and  _108
REMARK   48  A    between atoms: _108  and  _109
REMARK   49  A    between atoms: _109  and  _110
REMARK   50  A    between atoms: _114  and  _116
REMARK   51  A    between atoms: _116  and  _117
REMARK   52  A    between atoms: _120  and  _122
REMARK   53  A    between atoms: _122  and  _123
REMARK   54  A    between atoms: _122  and  _125
REMARK   55  A    between atoms: _125  and  _126
REMARK   56  A    between atoms: _126  and  _127
REMARK   57  A    between atoms: _127  and  _128
REMARK   58  A    between atoms: _128  and  _129
REMARK   59  A    between atoms: _133  and  _135
REMARK   60  A    between atoms: _135  and  _136
REMARK   61  A    between atoms: _135  and  _138
REMARK   62  A    between atoms: _138  and  _139
REMARK   63  A    between atoms: _139  and  _140
REMARK   64  A    between atoms: _140  and  _141
REMARK   65  A    between atoms: _150  and  _152
REMARK   66  A    between atoms: _152  and  _153
REMARK   67  A    between atoms: _152  and  _155
REMARK   68  A    between atoms: _155  and  _156
REMARK   69  A    between atoms: _159  and  _161
REMARK   70  A    between atoms: _161  and  _162
REMARK   71  A    between atoms: _161  and  _164
REMARK   72  A    between atoms: _168  and  _169
REMARK   73  A    between atoms: _174  and  _176
REMARK   74  A    between atoms: _176  and  _177
REMARK   75  A    between atoms: _180  and  _182
REMARK   76  A    between atoms: _182  and  _183
REMARK   77  A    between atoms: _182  and  _185
REMARK   78  A    between atoms: _185  and  _186
REMARK   79  A    between atoms: _192  and  _194
REMARK   80  A    between atoms: _194  and  _195
REMARK   81  A    between atoms: _194  and  _197
REMARK   82  A    between atoms: _197  and  _198
REMARK   83  A    between atoms: _198  and  _199
REMARK   84  A    between atoms: _202  and  _204
REMARK   85  A    between atoms: _204  and  _205
REMARK   86  A    between atoms: _204  and  _207
REMARK   87  A    between atoms: _207  and  _208
REMARK   88  A    between atoms: _211  and  _213
REMARK   89  A    between atoms: _213  and  _214
REMARK   90  A    between atoms: _213  and  _216
REMARK   91  A    between atoms: _216  and  _217
REMARK   92  A    between atoms: _220  and  _222
REMARK   93  A    between atoms: _222  and  _223
REMARK   94  A    between atoms: _225  and  _227
REMARK   95  A    between atoms: _227  and  _228
REMARK   96  A    between atoms: _230  and  _232
REMARK   97  A    between atoms: _232  and  _233
REMARK   98  A    between atoms: _235  and  _237
REMARK   99  A    between atoms: _237  and  _238
REMARK  100  A    between atoms: _241  and  _243
REMARK  101  A    between atoms: _243  and  _244
REMARK  102  A    between atoms: _243  and  _246
REMARK  103  A    between atoms: _246  and  _247
REMARK  104  A    between atoms: _253  and  _255
REMARK  105  A    between atoms: _255  and  _256
REMARK  106  A    between atoms: _255  and  _258
REMARK  107  A    between atoms: _258  and  _259
REMARK  108  A    between atoms: _262  and  _264
REMARK  109  A    between atoms: _264  and  _265
REMARK  110  A    between atoms: _264  and  _267
REMARK  111  A    between atoms: _267  and  _268
REMARK  112  A    between atoms: _271  and  _273
REMARK  113  A    between atoms: _273  and  _274
REMARK  114  A    between atoms: _273  and  _276
REMARK  115  A    between atoms: _276  and  _277
REMARK  116  A    between atoms: _280  and  _282
REMARK  117  A    between atoms: _282  and  _283
REMARK  118  A    between atoms: _282  and  _285
REMARK  119  A    between atoms: _285  and  _286
REMARK  120  A    between atoms: _289  and  _291
REMARK  121  A    between atoms: _291  and  _292
REMARK  122  A    between atoms: _294  and  _296
REMARK  123  A    between atoms: _296  and  _297
REMARK  124  A    between atoms: _299  and  _301
REMARK  125  A    between atoms: _301  and  _302
REMARK  126  A    between atoms: _301  and  _304
REMARK  127  A    between atoms: _304  and  _305
REMARK  128  A    between atoms: _305  and  _306
REMARK  129  A    between atoms: _309  and  _311
REMARK  130  A    between atoms: _311  and  _312
REMARK  131  A    between atoms: _311  and  _314
REMARK  132  A    between atoms: _314  and  _315
REMARK  133  A    between atoms: _318  and  _320
REMARK  134  A    between atoms: _320  and  _321
REMARK  135  A    between atoms: _320  and  _323
REMARK  136  A    between atoms: _323  and  _324
REMARK  137  A    between atoms: _330  and  _332
REMARK  138  A    between atoms: _332  and  _333
REMARK  139  A    between atoms: _332  and  _335
REMARK  140  A    between atoms: _335  and  _336
REMARK  141  A    between atoms: _339  and  _341
REMARK  142  A    between atoms: _341  and  _342
REMARK  143  A    between atoms: _341  and  _344
REMARK  144  A    between atoms: _344  and  _345
REMARK  145  A    between atoms: _345  and  _346
REMARK  146  A    between atoms: _346  and  _347
REMARK  147  A    between atoms: _347  and  _348
REMARK  148  A    between atoms: _352  and  _354
REMARK  149  A    between atoms: _354  and  _355
REMARK  150  A    between atoms: _358  and  _360
REMARK  151  A    between atoms: _360  and  _361
REMARK  152  A    between atoms: _360  and  _363
REMARK  153  A    between atoms: _363  and  _364
REMARK  154  A    between atoms: _364  and  _365
REMARK  155  A    between atoms: _368  and  _370
REMARK  156  A    between atoms: _370  and  _371
REMARK  157  A    between atoms: _370  and  _373
REMARK  158  A    between atoms: _373  and  _374
REMARK  159  A    between atoms: _374  and  _375
REMARK  160  A    between atoms: _375  and  _376
REMARK  161  A    between atoms: _376  and  _377
REMARK  162  A    between atoms: _381  and  _383
REMARK  163  A    between atoms: _383  and  _384
REMARK  164  A    between atoms: _387  and  _389
REMARK  165  A    between atoms: _389  and  _390
REMARK  166  A    between atoms: _389  and  _392
REMARK  167  A    between atoms: _392  and  _393
REMARK  168  A    between atoms: _393  and  _394
REMARK  169  A    between atoms: _394  and  _395
REMARK  170  A    between atoms: _395  and  _396
REMARK  171  A    between atoms: _400  and  _402
REMARK  172  A    between atoms: _402  and  _403
REMARK  173  A    between atoms: _402  and  _405
REMARK  174  A    between atoms: _405  and  _406
REMARK  175  A    between atoms: _409  and  _411
REMARK  176  A    between atoms: _411  and  _412
REMARK  177  A    between atoms: _411  and  _414
REMARK  178  A    between atoms: _414  and  _415
REMARK  179  A    between atoms: _415  and  _416
REMARK  180  A    between atoms: _419  and  _421
REMARK  181  A    between atoms: _421  and  _422
REMARK  182  A    between atoms: _421  and  _424
REMARK  183  A    between atoms: _424  and  _425
REMARK  184  A    between atoms: _428  and  _430
REMARK  185  A    between atoms: _430  and  _431
REMARK  186  A    between atoms: _430  and  _433
REMARK  187  A    between atoms: _433  and  _434
REMARK  188  A    between atoms: _436  and  _438
REMARK  189  A    between atoms: _438  and  _439
REMARK  190  A    between atoms: _438  and  _441
REMARK  191  A    between atoms: _441  and  _442
REMARK  192  A    between atoms: _444  and  _446
REMARK  193  A    between atoms: _446  and  _447
REMARK  194  A    between atoms: _450  and  _452
REMARK  195  A    between atoms: _452  and  _453
REMARK  196  A    between atoms: _452  and  _455
REMARK  197  A    between atoms: _455  and  _456
REMARK  198  A    between atoms: _459  and  _461
REMARK  199  A    between atoms: _461  and  _462
REMARK  200  A    between atoms: _461  and  _464
REMARK  201  A    between atoms: _467  and  _469
REMARK  202  A    between atoms: _469  and  _470
REMARK  203  A    between atoms: _472  and  _474
REMARK  204  A    between atoms: _474  and  _475
REMARK  205  A    between atoms: _477  and  _479
REMARK  206  A    between atoms: _479  and  _480
REMARK  207  A    between atoms: _479  and  _482
REMARK  208  A    between atoms: _482  and  _483
REMARK  209  A    between atoms: _483  and  _484
REMARK  210  A    between atoms: _489  and  _491
REMARK  211  A    between atoms: _491  and  _492
REMARK  212  A    between atoms: _491  and  _494
REMARK  213  A    between atoms: _494  and  _495
REMARK  214  A    between atoms: _498  and  _500
REMARK  215  A    between atoms: _500  and  _501
REMARK  216  A    between atoms: _500  and  _503
REMARK  217  A    between atoms: _503  and  _504
REMARK  218  A    between atoms: _504  and  _505
REMARK  219  A    between atoms: _505  and  _506
REMARK  220  A    between atoms: _515  and  _517
REMARK  221  A    between atoms: _517  and  _518
REMARK  222  A    between atoms: _517  and  _520
REMARK  223  A    between atoms: _520  and  _521
REMARK  224  A    between atoms: _521  and  _522
REMARK  225  A    between atoms: _525  and  _526
REMARK  226  A    between atoms: _531  and  _533
REMARK  227  A    between atoms: _533  and  _534
REMARK  228  A    between atoms: _533  and  _536
REMARK  229  A    between atoms: _539  and  _541
REMARK  230  A    between atoms: _541  and  _542
REMARK  231  A    between atoms: _541  and  _544
REMARK  232  A    between atoms: _544  and  _545
REMARK  233  A    between atoms: _545  and  _546
REMARK  234  A    between atoms: _552  and  _553
REMARK  235  A    between atoms: _558  and  _560
REMARK  236  A    between atoms: _560  and  _561
REMARK  237  A    between atoms: _560  and  _563
REMARK  238  A    between atoms: _563  and  _564
REMARK  239  A    between atoms: _567  and  _569
REMARK  240  A    between atoms: _569  and  _570
REMARK  241  A    between atoms: _569  and  _572
REMARK  242  A    between atoms: _572  and  _573
REMARK  243  A    between atoms: _573  and  _574
REMARK  244  A    between atoms: _577  and  _579
REMARK  245  A    between atoms: _579  and  _580
REMARK  246  A    between atoms: _579  and  _582
REMARK  247  A    between atoms: _585  and  _587
REMARK  248  A    between atoms: _587  and  _588
REMARK  249  A    between atoms: _591  and  _593
REMARK  250  A    between atoms: _593  and  _594
REMARK  251  A    between atoms: _593  and  _596
REMARK  252  A    between atoms: _596  and  _597
REMARK  253  A    between atoms: _597  and  _598
REMARK  254  A    between atoms: _601  and  _603
REMARK  255  A    between atoms: _603  and  _604
REMARK  256  A    between atoms: _606  and  _608
REMARK  257  A    between atoms: _608  and  _609
REMARK  258  A    between atoms: _608  and  _611
REMARK  259  A    between atoms: _611  and  _612
REMARK                            x       y       z     vdW  Elec       q    Type
REMARK                         _______ _______ _______ _____ _____    ______ ____
ROOT
ATOM      1  C   GLU A   2      29.953  71.896  34.894  0.00  0.00    +0.241 C 
ATOM      2  N   GLY A   3      29.589  70.619  34.880  0.00  0.00    -0.295 N 
ATOM      3  H   GLY A   3      30.139  69.928  35.430  0.00  0.00    +0.150 HD
ATOM      4  O   GLU A   2      29.360  72.760  34.254  0.00  0.00    -0.273 OA
ENDROOT
BRANCH   1   5
ATOM      5  CA  GLU A   2      31.169  72.259  35.750  0.00  0.00    +0.149 C 
BRANCH   5   8
ATOM      6  C   ALA A   1      30.980  70.789  37.676  0.00  0.00    +0.238 C 
ATOM      7  O   ALA A   1      29.979  71.379  38.079  0.00  0.00    -0.274 OA
ATOM      8  N   GLU A   2      31.619  71.135  36.564  0.00  0.00    -0.297 N 
ATOM      9  H   GLU A   2      32.456  70.594  36.268  0.00  0.00    +0.150 HD
BRANCH   6  10
ATOM     10  CA  ALA A   1      31.554  69.601  38.442  0.00  0.00    +0.145 C 
ATOM     11  CB  ALA A   1      32.549  70.077  39.501  0.00  0.00    +0.028 C 
BRANCH  10  12
ATOM     12  N   ALA A   1      32.184  68.641  37.534  0.00  0.00    -0.238 NA
ATOM     13  H   ALA A   1      33.193  68.418  37.652  0.00  0.00    +0.142 HD
ENDBRANCH  10  12
ENDBRANCH   6  10
ENDBRANCH   5   8
BRANCH   5  14
ATOM     14  CB  GLU A   2      32.304  72.780  34.862  0.00  0.00    +0.041 C 
BRANCH  14  15
ATOM     15  CG  GLU A   2      33.424  73.506  35.610  0.00  0.00    +0.116 C 
BRANCH  15  16
ATOM     16  CD  GLU A   2      34.328  72.572  36.410  0.00  0.00    +0.365 C 
ATOM     17  OE2 GLU A   2      34.890  73.034  37.420  0.00  0.00    -0.246 OA
ATOM     18  OE1 GLU A   2      34.487  71.387  36.037  0.00  0.00    -0.246 OA
ENDBRANCH  15  16
ENDBRANCH  14  15
ENDBRANCH   5  14
ENDBRANCH   1   5
BRANCH   2  19
ATOM     19  CA  GLY A   3      28.443  70.165  34.116  0.00  0.00    +0.176 C 
BRANCH  19  20
ATOM     20  C   GLY A   3      28.775  69.739  32.688  0.00  0.00    +0.243 C 
ATOM     21  N   ASP A   4      30.065  69.632  32.374  0.00  0.00    -0.297 N 
ATOM     22  H   ASP A   4      30.777  69.805  33.112  0.00  0.00    +0.150 HD
ATOM     23  O   GLY A   3      27.871  69.502  31.888  0.00  0.00    -0.273 OA
BRANCH  21  24
ATOM     24  CA  ASP A   4      30.516  69.278  31.022  0.00  0.00    +0.148 C 
BRANCH  24  25
ATOM     25  C   ASP A   4      30.951  67.822  30.919  0.00  0.00    +0.227 C 
ATOM     26  O   ASP A   4      31.566  67.269  31.838  0.00  0.00    -0.286 OA
ENDBRANCH  24  25
BRANCH  24  27
ATOM     27  CB  ASP A   4      31.680  70.164  30.593  0.00  0.00    +0.142 C 
BRANCH  27  28
ATOM     28  CG  ASP A   4      31.340  71.634  30.635  0.00  0.00    +0.367 C 
ATOM     29  OD2 ASP A   4      32.163  72.407  31.168  0.00  0.00    -0.246 OA
ATOM     30  OD1 ASP A   4      30.257  72.016  30.140  0.00  0.00    -0.246 OA
ENDBRANCH  27  28
ENDBRANCH  24  27
ENDBRANCH  21  24
ENDBRANCH  19  20
ENDBRANCH   2  19
TORSDOF 13
REMARK  Name = ../refined-set-2016/4jne/4jne_pocket.pdb
REMARK  259 active torsions:
REMARK  status: ('A' for Active; 'I' for Inactive)
REMARK    1  A    between atoms: _1  and  _3
REMARK    2  A    between atoms: _3  and  _4
REMARK    3  A    between atoms: _3  and  _6
REMARK    4  A    between atoms: _6  and  _7
REMARK    5  A    between atoms: _10  and  _12
REMARK    6  A    between atoms: _12  and  _13
REMARK    7  A    between atoms: _12  and  _15
REMARK    8  A    between atoms: _15  and  _16
REMARK    9  A    between atoms: _19  and  _21
REMARK   10  A    between atoms: _21  and  _22
REMARK   11  A    between atoms: _24  and  _26
REMARK   12  A    between atoms: _26  and  _27
REMARK   13  A    between atoms: _26  and  _29
REMARK   14  A    between atoms: _29  and  _30
REMARK   15  A    between atoms: _33  and  _35
REMARK   16  A    between atoms: _35  and  _36
REMARK   17  A    between atoms: _35  and  _38
REMARK   18  A    between atoms: _38  and  _39
REMARK   19  A    between atoms: _42  and  _44
REMARK   20  A    between atoms: _44  and  _45
REMARK   21  A    between atoms: _44  and  _47
REMARK   22  A    between atoms: _47  and  _48
REMARK   23  A    between atoms: _53  and  _55
REMARK   24  A    between atoms: _55  and  _56
REMARK   25  A    between atoms: _55  and  _58
REMARK   26  A    between atoms: _58  and  _59
REMARK   27  A    between atoms: _61  and  _63
REMARK   28  A    between atoms: _63  and  _64
REMARK   29  A    between atoms: _63  and  _66
REMARK   30  A    between atoms: _68  and  _70
REMARK   31  A    between atoms: _70  and  _71
REMARK   32  A    between atoms: _70  and  _73
REMARK   33  A    between atoms: _73  and  _74
REMARK   34  A    between atoms: _77  and  _79
REMARK   35  A    between atoms: _79  and  _80
REMARK   36  A    between atoms: _79  and  _82
REMARK   37  A    between atoms: _82  and  _83
REMARK   38  A    between atoms: _87  and  _88
REMARK   39  A    between atoms: _93  and  _95
REMARK   40  A    between atoms: _95  and  _96
REMARK   41  A    between atoms: _95  and  _98
REMARK   42  A    between atoms: _98  and  _99
REMARK   43  A    between atoms: _101  and  _103
REMARK   44  A    between atoms: _103  and  _104
REMARK   45  A    between atoms: _103  and  _106
REMARK   46  A    between atoms: _106  and  _107
REMARK   47  A    between atoms: _107  and  _108
REMARK   48  A    between atoms: _108  and  _109
REMARK   49  A    between atoms: _109  and  _110
REMARK   50  A    between atoms: _114  and  _116
REMARK   51  A    between atoms: _116  and  _117
REMARK   52  A    between atoms: _120  and  _122
REMARK   53  A    between atoms: _122  and  _123
REMARK   54  A    between atoms: _122  and  _125
REMARK   55  A    between atoms: _125  and  _126
REMARK   56  A    between atoms: _126  and  _127
REMARK   57  A    between atoms: _127  and  _128
REMARK   58  A    between atoms: _128  and  _129
REMARK   59  A    between atoms: _133  and  _135
REMARK   60  A    between atoms: _135  and  _136
REMARK   61  A    between atoms: _135  and  _138
REMARK   62  A    between atoms: _138  and  _139
REMARK   63  A    between atoms: _139  and  _140
REMARK   64  A    between atoms: _140  and  _141
REMARK   65  A    between atoms: _150  and  _152
REMARK   66  A    between atoms: _152  and  _153
REMARK   67  A    between atoms: _152  and  _155
REMARK   68  A    between atoms: _155  and  _156
REMARK   69  A    between atoms: _159  and  _161
REMARK   70  A    between atoms: _161  and  _162
REMARK   71  A    between atoms: _161  and  _164
REMARK   72  A    between atoms: _168  and  _169
REMARK   73  A    between atoms: _174  and  _176
REMARK   74  A    between atoms: _176  and  _177
REMARK   75  A    between atoms: _180  and  _182
REMARK   76  A    between atoms: _182  and  _183
REMARK   77  A    between atoms: _182  and  _185
REMARK   78  A    between atoms: _185  and  _186
REMARK   79  A    between atoms: _192  and  _194
REMARK   80  A    between atoms: _194  and  _195
REMARK   81  A    between atoms: _194  and  _197
REMARK   82  A    between atoms: _197  and  _198
REMARK   83  A    between atoms: _198  and  _199
REMARK   84  A    between atoms: _202  and  _204
REMARK   85  A    between atoms: _204  and  _205
REMARK   86  A    between atoms: _204  and  _207
REMARK   87  A    between atoms: _207  and  _208
REMARK   88  A    between atoms: _211  and  _213
REMARK   89  A    between atoms: _213  and  _214
REMARK   90  A    between atoms: _213  and  _216
REMARK   91  A    between atoms: _216  and  _217
REMARK   92  A    between atoms: _220  and  _222
REMARK   93  A    between atoms: _222  and  _223
REMARK   94  A    between atoms: _225  and  _227
REMARK   95  A    between atoms: _227  and  _228
REMARK   96  A    between atoms: _230  and  _232
REMARK   97  A    between atoms: _232  and  _233
REMARK   98  A    between atoms: _235  and  _237
REMARK   99  A    between atoms: _237  and  _238
REMARK  100  A    between atoms: _241  and  _243
REMARK  101  A    between atoms: _243  and  _244
REMARK  102  A    between atoms: _243  and  _246
REMARK  103  A    between atoms: _246  and  _247
REMARK  104  A    between atoms: _253  and  _255
REMARK  105  A    between atoms: _255  and  _256
REMARK  106  A    between atoms: _255  and  _258
REMARK  107  A    between atoms: _258  and  _259
REMARK  108  A    between atoms: _262  and  _264
REMARK  109  A    between atoms: _264  and  _265
REMARK  110  A    between atoms: _264  and  _267
REMARK  111  A    between atoms: _267  and  _268
REMARK  112  A    between atoms: _271  and  _273
REMARK  113  A    between atoms: _273  and  _274
REMARK  114  A    between atoms: _273  and  _276
REMARK  115  A    between atoms: _276  and  _277
REMARK  116  A    between atoms: _280  and  _282
REMARK  117  A    between atoms: _282  and  _283
REMARK  118  A    between atoms: _282  and  _285
REMARK  119  A    between atoms: _285  and  _286
REMARK  120  A    between atoms: _289  and  _291
REMARK  121  A    between atoms: _291  and  _292
REMARK  122  A    between atoms: _294  and  _296
REMARK  123  A    between atoms: _296  and  _297
REMARK  124  A    between atoms: _299  and  _301
REMARK  125  A    between atoms: _301  and  _302
REMARK  126  A    between atoms: _301  and  _304
REMARK  127  A    between atoms: _304  and  _305
REMARK  128  A    between atoms: _305  and  _306
REMARK  129  A    between atoms: _309  and  _311
REMARK  130  A    between atoms: _311  and  _312
REMARK  131  A    between atoms: _311  and  _314
REMARK  132  A    between atoms: _314  and  _315
REMARK  133  A    between atoms: _318  and  _320
REMARK  134  A    between atoms: _320  and  _321
REMARK  135  A    between atoms: _320  and  _323
REMARK  136  A    between atoms: _323  and  _324
REMARK  137  A    between atoms: _330  and  _332
REMARK  138  A    between atoms: _332  and  _333
REMARK  139  A    between atoms: _332  and  _335
REMARK  140  A    between atoms: _335  and  _336
REMARK  141  A    between atoms: _339  and  _341
REMARK  142  A    between atoms: _341  and  _342
REMARK  143  A    between atoms: _341  and  _344
REMARK  144  A    between atoms: _344  and  _345
REMARK  145  A    between atoms: _345  and  _346
REMARK  146  A    between atoms: _346  and  _347
REMARK  147  A    between atoms: _347  and  _348
REMARK  148  A    between atoms: _352  and  _354
REMARK  149  A    between atoms: _354  and  _355
REMARK  150  A    between atoms: _358  and  _360
REMARK  151  A    between atoms: _360  and  _361
REMARK  152  A    between atoms: _360  and  _363
REMARK  153  A    between atoms: _363  and  _364
REMARK  154  A    between atoms: _364  and  _365
REMARK  155  A    between atoms: _368  and  _370
REMARK  156  A    between atoms: _370  and  _371
REMARK  157  A    between atoms: _370  and  _373
REMARK  158  A    between atoms: _373  and  _374
REMARK  159  A    between atoms: _374  and  _375
REMARK  160  A    between atoms: _375  and  _376
REMARK  161  A    between atoms: _376  and  _377
REMARK  162  A    between atoms: _381  and  _383
REMARK  163  A    between atoms: _383  and  _384
REMARK  164  A    between atoms: _387  and  _389
REMARK  165  A    between atoms: _389  and  _390
REMARK  166  A    between atoms: _389  and  _392
REMARK  167  A    between atoms: _392  and  _393
REMARK  168  A    between atoms: _393  and  _394
REMARK  169  A    between atoms: _394  and  _395
REMARK  170  A    between atoms: _395  and  _396
REMARK  171  A    between atoms: _400  and  _402
REMARK  172  A    between atoms: _402  and  _403
REMARK  173  A    between atoms: _402  and  _405
REMARK  174  A    between atoms: _405  and  _406
REMARK  175  A    between atoms: _409  and  _411
REMARK  176  A    between atoms: _411  and  _412
REMARK  177  A    between atoms: _411  and  _414
REMARK  178  A    between atoms: _414  and  _415
REMARK  179  A    between atoms: _415  and  _416
REMARK  180  A    between atoms: _419  and  _421
REMARK  181  A    between atoms: _421  and  _422
REMARK  182  A    between atoms: _421  and  _424
REMARK  183  A    between atoms: _424  and  _425
REMARK  184  A    between atoms: _428  and  _430
REMARK  185  A    between atoms: _430  and  _431
REMARK  186  A    between atoms: _430  and  _433
REMARK  187  A    between atoms: _433  and  _434
REMARK  188  A    between atoms: _436  and  _438
REMARK  189  A    between atoms: _438  and  _439
REMARK  190  A    between atoms: _438  and  _441
REMARK  191  A    between atoms: _441  and  _442
REMARK  192  A    between atoms: _444  and  _446
REMARK  193  A    between atoms: _446  and  _447
REMARK  194  A    between atoms: _450  and  _452
REMARK  195  A    between atoms: _452  and  _453
REMARK  196  A    between atoms: _452  and  _455
REMARK  197  A    between atoms: _455  and  _456
REMARK  198  A    between atoms: _459  and  _461
REMARK  199  A    between atoms: _461  and  _462
REMARK  200  A    between atoms: _461  and  _464
REMARK  201  A    between atoms: _467  and  _469
REMARK  202  A    between atoms: _469  and  _470
REMARK  203  A    between atoms: _472  and  _474
REMARK  204  A    between atoms: _474  and  _475
REMARK  205  A    between atoms: _477  and  _479
REMARK  206  A    between atoms: _479  and  _480
REMARK  207  A    between atoms: _479  and  _482
REMARK  208  A    between atoms: _482  and  _483
REMARK  209  A    between atoms: _483  and  _484
REMARK  210  A    between atoms: _489  and  _491
REMARK  211  A    between atoms: _491  and  _492
REMARK  212  A    between atoms: _491  and  _494
REMARK  213  A    between atoms: _494  and  _495
REMARK  214  A    between atoms: _498  and  _500
REMARK  215  A    between atoms: _500  and  _501
REMARK  216  A    between atoms: _500  and  _503
REMARK  217  A    between atoms: _503  and  _504
REMARK  218  A    between atoms: _504  and  _505
REMARK  219  A    between atoms: _505  and  _506
REMARK  220  A    between atoms: _515  and  _517
REMARK  221  A    between atoms: _517  and  _518
REMARK  222  A    between atoms: _517  and  _520
REMARK  223  A    between atoms: _520  and  _521
REMARK  224  A    between atoms: _521  and  _522
REMARK  225  A    between atoms: _525  and  _526
REMARK  226  A    between atoms: _531  and  _533
REMARK  227  A    between atoms: _533  and  _534
REMARK  228  A    between atoms: _533  and  _536
REMARK  229  A    between atoms: _539  and  _541
REMARK  230  A    between atoms: _541  and  _542
REMARK  231  A    between atoms: _541  and  _544
REMARK  232  A    between atoms: _544  and  _545
REMARK  233  A    between atoms: _545  and  _546
REMARK  234  A    between atoms: _552  and  _553
REMARK  235  A    between atoms: _558  and  _560
REMARK  236  A    between atoms: _560  and  _561
REMARK  237  A    between atoms: _560  and  _563
REMARK  238  A    between atoms: _563  and  _564
REMARK  239  A    between atoms: _567  and  _569
REMARK  240  A    between atoms: _569  and  _570
REMARK  241  A    between atoms: _569  and  _572
REMARK  242  A    between atoms: _572  and  _573
REMARK  243  A    between atoms: _573  and  _574
REMARK  244  A    between atoms: _577  and  _579
REMARK  245  A    between atoms: _579  and  _580
REMARK  246  A    between atoms: _579  and  _582
REMARK  247  A    between atoms: _585  and  _587
REMARK  248  A    between atoms: _587  and  _588
REMARK  249  A    between atoms: _591  and  _593
REMARK  250  A    between atoms: _593  and  _594
REMARK  251  A    between atoms: _593  and  _596
REMARK  252  A    between atoms: _596  and  _597
REMARK  253  A    between atoms: _597  and  _598
REMARK  254  A    between atoms: _601  and  _603
REMARK  255  A    between atoms: _603  and  _604
REMARK  256  A    between atoms: _606  and  _608
REMARK  257  A    between atoms: _608  and  _609
REMARK  258  A    between atoms: _608  and  _611
REMARK  259  A    between atoms: _611  and  _612
REMARK                            x       y       z     vdW  Elec       q    Type
REMARK                         _______ _______ _______ _____ _____    ______ ____
ROOT
ATOM      1 MG   UNL     1      13.649  73.083  27.853  0.00  0.00    +0.000 Mg
ATOM      2  O   UNL     1      11.921  72.009  28.560  0.00  0.00    +0.000 OA
ATOM      3  O   UNL     1      14.741  71.322  27.203  0.00  0.00    +0.000 OA
ENDROOT
TORSDOF 0
REMARK  Name = ../refined-set-2016/4jne/4jne_pocket.pdb
REMARK  259 active torsions:
REMARK  status: ('A' for Active; 'I' for Inactive)
REMARK    1  A    between atoms: _1  and  _3
REMARK    2  A    between atoms: _3  and  _4
REMARK    3  A    between atoms: _3  and  _6
REMARK    4  A    between atoms: _6  and  _7
REMARK    5  A    between atoms: _10  and  _12
REMARK    6  A    between atoms: _12  and  _13
REMARK    7  A    between atoms: _12  and  _15
REMARK    8  A    between atoms: _15  and  _16
REMARK    9  A    between atoms: _19  and  _21
REMARK   10  A    between atoms: _21  and  _22
REMARK   11  A    between atoms: _24  and  _26
REMARK   12  A    between atoms: _26  and  _27
REMARK   13  A    between atoms: _26  and  _29
REMARK   14  A    between atoms: _29  and  _30
REMARK   15  A    between atoms: _33  and  _35
REMARK   16  A    between atoms: _35  and  _36
REMARK   17  A    between atoms: _35  and  _38
REMARK   18  A    between atoms: _38  and  _39
REMARK   19  A    between atoms: _42  and  _44
REMARK   20  A    between atoms: _44  and  _45
REMARK   21  A    between atoms: _44  and  _47
REMARK   22  A    between atoms: _47  and  _48
REMARK   23  A    between atoms: _53  and  _55
REMARK   24  A    between atoms: _55  and  _56
REMARK   25  A    between atoms: _55  and  _58
REMARK   26  A    between atoms: _58  and  _59
REMARK   27  A    between atoms: _61  and  _63
REMARK   28  A    between atoms: _63  and  _64
REMARK   29  A    between atoms: _63  and  _66
REMARK   30  A    between atoms: _68  and  _70
REMARK   31  A    between atoms: _70  and  _71
REMARK   32  A    between atoms: _70  and  _73
REMARK   33  A    between atoms: _73  and  _74
REMARK   34  A    between atoms: _77  and  _79
REMARK   35  A    between atoms: _79  and  _80
REMARK   36  A    between atoms: _79  and  _82
REMARK   37  A    between atoms: _82  and  _83
REMARK   38  A    between atoms: _87  and  _88
REMARK   39  A    between atoms: _93  and  _95
REMARK   40  A    between atoms: _95  and  _96
REMARK   41  A    between atoms: _95  and  _98
REMARK   42  A    between atoms: _98  and  _99
REMARK   43  A    between atoms: _101  and  _103
REMARK   44  A    between atoms: _103  and  _104
REMARK   45  A    between atoms: _103  and  _106
REMARK   46  A    between atoms: _106  and  _107
REMARK   47  A    between atoms: _107  and  _108
REMARK   48  A    between atoms: _108  and  _109
REMARK   49  A    between atoms: _109  and  _110
REMARK   50  A    between atoms: _114  and  _116
REMARK   51  A    between atoms: _116  and  _117
REMARK   52  A    between atoms: _120  and  _122
REMARK   53  A    between atoms: _122  and  _123
REMARK   54  A    between atoms: _122  and  _125
REMARK   55  A    between atoms: _125  and  _126
REMARK   56  A    between atoms: _126  and  _127
REMARK   57  A    between atoms: _127  and  _128
REMARK   58  A    between atoms: _128  and  _129
REMARK   59  A    between atoms: _133  and  _135
REMARK   60  A    between atoms: _135  and  _136
REMARK   61  A    between atoms: _135  and  _138
REMARK   62  A    between atoms: _138  and  _139
REMARK   63  A    between atoms: _139  and  _140
REMARK   64  A    between atoms: _140  and  _141
REMARK   65  A    between atoms: _150  and  _152
REMARK   66  A    between atoms: _152  and  _153
REMARK   67  A    between atoms: _152  and  _155
REMARK   68  A    between atoms: _155  and  _156
REMARK   69  A    between atoms: _159  and  _161
REMARK   70  A    between atoms: _161  and  _162
REMARK   71  A    between atoms: _161  and  _164
REMARK   72  A    between atoms: _168  and  _169
REMARK   73  A    between atoms: _174  and  _176
REMARK   74  A    between atoms: _176  and  _177
REMARK   75  A    between atoms: _180  and  _182
REMARK   76  A    between atoms: _182  and  _183
REMARK   77  A    between atoms: _182  and  _185
REMARK   78  A    between atoms: _185  and  _186
REMARK   79  A    between atoms: _192  and  _194
REMARK   80  A    between atoms: _194  and  _195
REMARK   81  A    between atoms: _194  and  _197
REMARK   82  A    between atoms: _197  and  _198
REMARK   83  A    between atoms: _198  and  _199
REMARK   84  A    between atoms: _202  and  _204
REMARK   85  A    between atoms: _204  and  _205
REMARK   86  A    between atoms: _204  and  _207
REMARK   87  A    between atoms: _207  and  _208
REMARK   88  A    between atoms: _211  and  _213
REMARK   89  A    between atoms: _213  and  _214
REMARK   90  A    between atoms: _213  and  _216
REMARK   91  A    between atoms: _216  and  _217
REMARK   92  A    between atoms: _220  and  _222
REMARK   93  A    between atoms: _222  and  _223
REMARK   94  A    between atoms: _225  and  _227
REMARK   95  A    between atoms: _227  and  _228
REMARK   96  A    between atoms: _230  and  _232
REMARK   97  A    between atoms: _232  and  _233
REMARK   98  A    between atoms: _235  and  _237
REMARK   99  A    between atoms: _237  and  _238
REMARK  100  A    between atoms: _241  and  _243
REMARK  101  A    between atoms: _243  and  _244
REMARK  102  A    between atoms: _243  and  _246
REMARK  103  A    between atoms: _246  and  _247
REMARK  104  A    between atoms: _253  and  _255
REMARK  105  A    between atoms: _255  and  _256
REMARK  106  A    between atoms: _255  and  _258
REMARK  107  A    between atoms: _258  and  _259
REMARK  108  A    between atoms: _262  and  _264
REMARK  109  A    between atoms: _264  and  _265
REMARK  110  A    between atoms: _264  and  _267
REMARK  111  A    between atoms: _267  and  _268
REMARK  112  A    between atoms: _271  and  _273
REMARK  113  A    between atoms: _273  and  _274
REMARK  114  A    between atoms: _273  and  _276
REMARK  115  A    between atoms: _276  and  _277
REMARK  116  A    between atoms: _280  and  _282
REMARK  117  A    between atoms: _282  and  _283
REMARK  118  A    between atoms: _282  and  _285
REMARK  119  A    between atoms: _285  and  _286
REMARK  120  A    between atoms: _289  and  _291
REMARK  121  A    between atoms: _291  and  _292
REMARK  122  A    between atoms: _294  and  _296
REMARK  123  A    between atoms: _296  and  _297
REMARK  124  A    between atoms: _299  and  _301
REMARK  125  A    between atoms: _301  and  _302
REMARK  126  A    between atoms: _301  and  _304
REMARK  127  A    between atoms: _304  and  _305
REMARK  128  A    between atoms: _305  and  _306
REMARK  129  A    between atoms: _309  and  _311
REMARK  130  A    between atoms: _311  and  _312
REMARK  131  A    between atoms: _311  and  _314
REMARK  132  A    between atoms: _314  and  _315
REMARK  133  A    between atoms: _318  and  _320
REMARK  134  A    between atoms: _320  and  _321
REMARK  135  A    between atoms: _320  and  _323
REMARK  136  A    between atoms: _323  and  _324
REMARK  137  A    between atoms: _330  and  _332
REMARK  138  A    between atoms: _332  and  _333
REMARK  139  A    between atoms: _332  and  _335
REMARK  140  A    between atoms: _335  and  _336
REMARK  141  A    between atoms: _339  and  _341
REMARK  142  A    between atoms: _341  and  _342
REMARK  143  A    between atoms: _341  and  _344
REMARK  144  A    between atoms: _344  and  _345
REMARK  145  A    between atoms: _345  and  _346
REMARK  146  A    between atoms: _346  and  _347
REMARK  147  A    between atoms: _347  and  _348
REMARK  148  A    between atoms: _352  and  _354
REMARK  149  A    between atoms: _354  and  _355
REMARK  150  A    between atoms: _358  and  _360
REMARK  151  A    between atoms: _360  and  _361
REMARK  152  A    between atoms: _360  and  _363
REMARK  153  A    between atoms: _363  and  _364
REMARK  154  A    between atoms: _364  and  _365
REMARK  155  A    between atoms: _368  and  _370
REMARK  156  A    between atoms: _370  and  _371
REMARK  157  A    between atoms: _370  and  _373
REMARK  158  A    between atoms: _373  and  _374
REMARK  159  A    between atoms: _374  and  _375
REMARK  160  A    between atoms: _375  and  _376
REMARK  161  A    between atoms: _376  and  _377
REMARK  162  A    between atoms: _381  and  _383
REMARK  163  A    between atoms: _383  and  _384
REMARK  164  A    between atoms: _387  and  _389
REMARK  165  A    between atoms: _389  and  _390
REMARK  166  A    between atoms: _389  and  _392
REMARK  167  A    between atoms: _392  and  _393
REMARK  168  A    between atoms: _393  and  _394
REMARK  169  A    between atoms: _394  and  _395
REMARK  170  A    between atoms: _395  and  _396
REMARK  171  A    between atoms: _400  and  _402
REMARK  172  A    between atoms: _402  and  _403
REMARK  173  A    between atoms: _402  and  _405
REMARK  174  A    between atoms: _405  and  _406
REMARK  175  A    between atoms: _409  and  _411
REMARK  176  A    between atoms: _411  and  _412
REMARK  177  A    between atoms: _411  and  _414
REMARK  178  A    between atoms: _414  and  _415
REMARK  179  A    between atoms: _415  and  _416
REMARK  180  A    between atoms: _419  and  _421
REMARK  181  A    between atoms: _421  and  _422
REMARK  182  A    between atoms: _421  and  _424
REMARK  183  A    between atoms: _424  and  _425
REMARK  184  A    between atoms: _428  and  _430
REMARK  185  A    between atoms: _430  and  _431
REMARK  186  A    between atoms: _430  and  _433
REMARK  187  A    between atoms: _433  and  _434
REMARK  188  A    between atoms: _436  and  _438
REMARK  189  A    between atoms: _438  and  _439
REMARK  190  A    between atoms: _438  and  _441
REMARK  191  A    between atoms: _441  and  _442
REMARK  192  A    between atoms: _444  and  _446
REMARK  193  A    between atoms: _446  and  _447
REMARK  194  A    between atoms: _450  and  _452
REMARK  195  A    between atoms: _452  and  _453
REMARK  196  A    between atoms: _452  and  _455
REMARK  197  A    between atoms: _455  and  _456
REMARK  198  A    between atoms: _459  and  _461
REMARK  199  A    between atoms: _461  and  _462
REMARK  200  A    between atoms: _461  and  _464
REMARK  201  A    between atoms: _467  and  _469
REMARK  202  A    between atoms: _469  and  _470
REMARK  203  A    between atoms: _472  and  _474
REMARK  204  A    between atoms: _474  and  _475
REMARK  205  A    between atoms: _477  and  _479
REMARK  206  A    between atoms: _479  and  _480
REMARK  207  A    between atoms: _479  and  _482
REMARK  208  A    between atoms: _482  and  _483
REMARK  209  A    between atoms: _483  and  _484
REMARK  210  A    between atoms: _489  and  _491
REMARK  211  A    between atoms: _491  and  _492
REMARK  212  A    between atoms: _491  and  _494
REMARK  213  A    between atoms: _494  and  _495
REMARK  214  A    between atoms: _498  and  _500
REMARK  215  A    between atoms: _500  and  _501
REMARK  216  A    between atoms: _500  and  _503
REMARK  217  A    between atoms: _503  and  _504
REMARK  218  A    between atoms: _504  and  _505
REMARK  219  A    between atoms: _505  and  _506
REMARK  220  A    between atoms: _515  and  _517
REMARK  221  A    between atoms: _517  and  _518
REMARK  222  A    between atoms: _517  and  _520
REMARK  223  A    between atoms: _520  and  _521
REMARK  224  A    between atoms: _521  and  _522
REMARK  225  A    between atoms: _525  and  _526
REMARK  226  A    between atoms: _531  and  _533
REMARK  227  A    between atoms: _533  and  _534
REMARK  228  A    between atoms: _533  and  _536
REMARK  229  A    between atoms: _539  and  _541
REMARK  230  A    between atoms: _541  and  _542
REMARK  231  A    between atoms: _541  and  _544
REMARK  232  A    between atoms: _544  and  _545
REMARK  233  A    between atoms: _545  and  _546
REMARK  234  A    between atoms: _552  and  _553
REMARK  235  A    between atoms: _558  and  _560
REMARK  236  A    between atoms: _560  and  _561
REMARK  237  A    between atoms: _560  and  _563
REMARK  238  A    between atoms: _563  and  _564
REMARK  239  A    between atoms: _567  and  _569
REMARK  240  A    between atoms: _569  and  _570
REMARK  241  A    between atoms: _569  and  _572
REMARK  242  A    between atoms: _572  and  _573
REMARK  243  A    between atoms: _573  and  _574
REMARK  244  A    between atoms: _577  and  _579
REMARK  245  A    between atoms: _579  and  _580
REMARK  246  A    between atoms: _579  and  _582
REMARK  247  A    between atoms: _585  and  _587
REMARK  248  A    between atoms: _587  and  _588
REMARK  249  A    between atoms: _591  and  _593
REMARK  250  A    between atoms: _593  and  _594
REMARK  251  A    between atoms: _593  and  _596
REMARK  252  A    between atoms: _596  and  _597
REMARK  253  A    between atoms: _597  and  _598
REMARK  254  A    between atoms: _601  and  _603
REMARK  255  A    between atoms: _603  and  _604
REMARK  256  A    between atoms: _606  and  _608
REMARK  257  A    between atoms: _608  and  _609
REMARK  258  A    between atoms: _608  and  _611
REMARK  259  A    between atoms: _611  and  _612
REMARK                            x       y       z     vdW  Elec       q    Type
REMARK                         _______ _______ _______ _____ _____    ______ ____
ROOT
ATOM      1  O   HOH     1      14.787  72.928  29.861  0.00  0.00    +0.000 OA
ENDROOT
TORSDOF 0
REMARK  Name = ../refined-set-2016/4jne/4jne_pocket.pdb
REMARK  259 active torsions:
REMARK  status: ('A' for Active; 'I' for Inactive)
REMARK    1  A    between atoms: _1  and  _3
REMARK    2  A    between atoms: _3  and  _4
REMARK    3  A    between atoms: _3  and  _6
REMARK    4  A    between atoms: _6  and  _7
REMARK    5  A    between atoms: _10  and  _12
REMARK    6  A    between atoms: _12  and  _13
REMARK    7  A    between atoms: _12  and  _15
REMARK    8  A    between atoms: _15  and  _16
REMARK    9  A    between atoms: _19  and  _21
REMARK   10  A    between atoms: _21  and  _22
REMARK   11  A    between atoms: _24  and  _26
REMARK   12  A    between atoms: _26  and  _27
REMARK   13  A    between atoms: _26  and  _29
REMARK   14  A    between atoms: _29  and  _30
REMARK   15  A    between atoms: _33  and  _35
REMARK   16  A    between atoms: _35  and  _36
REMARK   17  A    between atoms: _35  and  _38
REMARK   18  A    between atoms: _38  and  _39
REMARK   19  A    between atoms: _42  and  _44
REMARK   20  A    between atoms: _44  and  _45
REMARK   21  A    between atoms: _44  and  _47
REMARK   22  A    between atoms: _47  and  _48
REMARK   23  A    between atoms: _53  and  _55
REMARK   24  A    between atoms: _55  and  _56
REMARK   25  A    between atoms: _55  and  _58
REMARK   26  A    between atoms: _58  and  _59
REMARK   27  A    between atoms: _61  and  _63
REMARK   28  A    between atoms: _63  and  _64
REMARK   29  A    between atoms: _63  and  _66
REMARK   30  A    between atoms: _68  and  _70
REMARK   31  A    between atoms: _70  and  _71
REMARK   32  A    between atoms: _70  and  _73
REMARK   33  A    between atoms: _73  and  _74
REMARK   34  A    between atoms: _77  and  _79
REMARK   35  A    between atoms: _79  and  _80
REMARK   36  A    between atoms: _79  and  _82
REMARK   37  A    between atoms: _82  and  _83
REMARK   38  A    between atoms: _87  and  _88
REMARK   39  A    between atoms: _93  and  _95
REMARK   40  A    between atoms: _95  and  _96
REMARK   41  A    between atoms: _95  and  _98
REMARK   42  A    between atoms: _98  and  _99
REMARK   43  A    between atoms: _101  and  _103
REMARK   44  A    between atoms: _103  and  _104
REMARK   45  A    between atoms: _103  and  _106
REMARK   46  A    between atoms: _106  and  _107
REMARK   47  A    between atoms: _107  and  _108
REMARK   48  A    between atoms: _108  and  _109
REMARK   49  A    between atoms: _109  and  _110
REMARK   50  A    between atoms: _114  and  _116
REMARK   51  A    between atoms: _116  and  _117
REMARK   52  A    between atoms: _120  and  _122
REMARK   53  A    between atoms: _122  and  _123
REMARK   54  A    between atoms: _122  and  _125
REMARK   55  A    between atoms: _125  and  _126
REMARK   56  A    between atoms: _126  and  _127
REMARK   57  A    between atoms: _127  and  _128
REMARK   58  A    between atoms: _128  and  _129
REMARK   59  A    between atoms: _133  and  _135
REMARK   60  A    between atoms: _135  and  _136
REMARK   61  A    between atoms: _135  and  _138
REMARK   62  A    between atoms: _138  and  _139
REMARK   63  A    between atoms: _139  and  _140
REMARK   64  A    between atoms: _140  and  _141
REMARK   65  A    between atoms: _150  and  _152
REMARK   66  A    between atoms: _152  and  _153
REMARK   67  A    between atoms: _152  and  _155
REMARK   68  A    between atoms: _155  and  _156
REMARK   69  A    between atoms: _159  and  _161
REMARK   70  A    between atoms: _161  and  _162
REMARK   71  A    between atoms: _161  and  _164
REMARK   72  A    between atoms: _168  and  _169
REMARK   73  A    between atoms: _174  and  _176
REMARK   74  A    between atoms: _176  and  _177
REMARK   75  A    between atoms: _180  and  _182
REMARK   76  A    between atoms: _182  and  _183
REMARK   77  A    between atoms: _182  and  _185
REMARK   78  A    between atoms: _185  and  _186
REMARK   79  A    between atoms: _192  and  _194
REMARK   80  A    between atoms: _194  and  _195
REMARK   81  A    between atoms: _194  and  _197
REMARK   82  A    between atoms: _197  and  _198
REMARK   83  A    between atoms: _198  and  _199
REMARK   84  A    between atoms: _202  and  _204
REMARK   85  A    between atoms: _204  and  _205
REMARK   86  A    between atoms: _204  and  _207
REMARK   87  A    between atoms: _207  and  _208
REMARK   88  A    between atoms: _211  and  _213
REMARK   89  A    between atoms: _213  and  _214
REMARK   90  A    between atoms: _213  and  _216
REMARK   91  A    between atoms: _216  and  _217
REMARK   92  A    between atoms: _220  and  _222
REMARK   93  A    between atoms: _222  and  _223
REMARK   94  A    between atoms: _225  and  _227
REMARK   95  A    between atoms: _227  and  _228
REMARK   96  A    between atoms: _230  and  _232
REMARK   97  A    between atoms: _232  and  _233
REMARK   98  A    between atoms: _235  and  _237
REMARK   99  A    between atoms: _237  and  _238
REMARK  100  A    between atoms: _241  and  _243
REMARK  101  A    between atoms: _243  and  _244
REMARK  102  A    between atoms: _243  and  _246
REMARK  103  A    between atoms: _246  and  _247
REMARK  104  A    between atoms: _253  and  _255
REMARK  105  A    between atoms: _255  and  _256
REMARK  106  A    between atoms: _255  and  _258
REMARK  107  A    between atoms: _258  and  _259
REMARK  108  A    between atoms: _262  and  _264
REMARK  109  A    between atoms: _264  and  _265
REMARK  110  A    between atoms: _264  and  _267
REMARK  111  A    between atoms: _267  and  _268
REMARK  112  A    between atoms: _271  and  _273
REMARK  113  A    between atoms: _273  and  _274
REMARK  114  A    between atoms: _273  and  _276
REMARK  115  A    between atoms: _276  and  _277
REMARK  116  A    between atoms: _280  and  _282
REMARK  117  A    between atoms: _282  and  _283
REMARK  118  A    between atoms: _282  and  _285
REMARK  119  A    between atoms: _285  and  _286
REMARK  120  A    between atoms: _289  and  _291
REMARK  121  A    between atoms: _291  and  _292
REMARK  122  A    between atoms: _294  and  _296
REMARK  123  A    between atoms: _296  and  _297
REMARK  124  A    between atoms: _299  and  _301
REMARK  125  A    between atoms: _301  and  _302
REMARK  126  A    between atoms: _301  and  _304
REMARK  127  A    between atoms: _304  and  _305
REMARK  128  A    between atoms: _305  and  _306
REMARK  129  A    between atoms: _309  and  _311
REMARK  130  A    between atoms: _311  and  _312
REMARK  131  A    between atoms: _311  and  _314
REMARK  132  A    between atoms: _314  and  _315
REMARK  133  A    between atoms: _318  and  _320
REMARK  134  A    between atoms: _320  and  _321
REMARK  135  A    between atoms: _320  and  _323
REMARK  136  A    between atoms: _323  and  _324
REMARK  137  A    between atoms: _330  and  _332
REMARK  138  A    between atoms: _332  and  _333
REMARK  139  A    between atoms: _332  and  _335
REMARK  140  A    between atoms: _335  and  _336
REMARK  141  A    between atoms: _339  and  _341
REMARK  142  A    between atoms: _341  and  _342
REMARK  143  A    between atoms: _341  and  _344
REMARK  144  A    between atoms: _344  and  _345
REMARK  145  A    between atoms: _345  and  _346
REMARK  146  A    between atoms: _346  and  _347
REMARK  147  A    between atoms: _347  and  _348
REMARK  148  A    between atoms: _352  and  _354
REMARK  149  A    between atoms: _354  and  _355
REMARK  150  A    between atoms: _358  and  _360
REMARK  151  A    between atoms: _360  and  _361
REMARK  152  A    between atoms: _360  and  _363
REMARK  153  A    between atoms: _363  and  _364
REMARK  154  A    between atoms: _364  and  _365
REMARK  155  A    between atoms: _368  and  _370
REMARK  156  A    between atoms: _370  and  _371
REMARK  157  A    between atoms: _370  and  _373
REMARK  158  A    between atoms: _373  and  _374
REMARK  159  A    between atoms: _374  and  _375
REMARK  160  A    between atoms: _375  and  _376
REMARK  161  A    between atoms: _376  and  _377
REMARK  162  A    between atoms: _381  and  _383
REMARK  163  A    between atoms: _383  and  _384
REMARK  164  A    between atoms: _387  and  _389
REMARK  165  A    between atoms: _389  and  _390
REMARK  166  A    between atoms: _389  and  _392
REMARK  167  A    between atoms: _392  and  _393
REMARK  168  A    between atoms: _393  and  _394
REMARK  169  A    between atoms: _394  and  _395
REMARK  170  A    between atoms: _395  and  _396
REMARK  171  A    between atoms: _400  and  _402
REMARK  172  A    between atoms: _402  and  _403
REMARK  173  A    between atoms: _402  and  _405
REMARK  174  A    between atoms: _405  and  _406
REMARK  175  A    between atoms: _409  and  _411
REMARK  176  A    between atoms: _411  and  _412
REMARK  177  A    between atoms: _411  and  _414
REMARK  178  A    between atoms: _414  and  _415
REMARK  179  A    between atoms: _415  and  _416
REMARK  180  A    between atoms: _419  and  _421
REMARK  181  A    between atoms: _421  and  _422
REMARK  182  A    between atoms: _421  and  _424
REMARK  183  A    between atoms: _424  and  _425
REMARK  184  A    between atoms: _428  and  _430
REMARK  185  A    between atoms: _430  and  _431
REMARK  186  A    between atoms: _430  and  _433
REMARK  187  A    between atoms: _433  and  _434
REMARK  188  A    between atoms: _436  and  _438
REMARK  189  A    between atoms: _438  and  _439
REMARK  190  A    between atoms: _438  and  _441
REMARK  191  A    between atoms: _441  and  _442
REMARK  192  A    between atoms: _444  and  _446
REMARK  193  A    between atoms: _446  and  _447
REMARK  194  A    between atoms: _450  and  _452
REMARK  195  A    between atoms: _452  and  _453
REMARK  196  A    between atoms: _452  and  _455
REMARK  197  A    between atoms: _455  and  _456
REMARK  198  A    between atoms: _459  and  _461
REMARK  199  A    between atoms: _461  and  _462
REMARK  200  A    between atoms: _461  and  _464
REMARK  201  A    between atoms: _467  and  _469
REMARK  202  A    between atoms: _469  and  _470
REMARK  203  A    between atoms: _472  and  _474
REMARK  204  A    between atoms: _474  and  _475
REMARK  205  A    between atoms: _477  and  _479
REMARK  206  A    between atoms: _479  and  _480
REMARK  207  A    between atoms: _479  and  _482
REMARK  208  A    between atoms: _482  and  _483
REMARK  209  A    between atoms: _483  and  _484
REMARK  210  A    between atoms: _489  and  _491
REMARK  211  A    between atoms: _491  and  _492
REMARK  212  A    between atoms: _491  and  _494
REMARK  213  A    between atoms: _494  and  _495
REMARK  214  A    between atoms: _498  and  _500
REMARK  215  A    between atoms: _500  and  _501
REMARK  216  A    between atoms: _500  and  _503
REMARK  217  A    between atoms: _503  and  _504
REMARK  218  A    between atoms: _504  and  _505
REMARK  219  A    between atoms: _505  and  _506
REMARK  220  A    between atoms: _515  and  _517
REMARK  221  A    between atoms: _517  and  _518
REMARK  222  A    between atoms: _517  and  _520
REMARK  223  A    between atoms: _520  and  _521
REMARK  224  A    between atoms: _521  and  _522
REMARK  225  A    between atoms: _525  and  _526
REMARK  226  A    between atoms: _531  and  _533
REMARK  227  A    between atoms: _533  and  _534
REMARK  228  A    between atoms: _533  and  _536
REMARK  229  A    between atoms: _539  and  _541
REMARK  230  A    between atoms: _541  and  _542
REMARK  231  A    between atoms: _541  and  _544
REMARK  232  A    between atoms: _544  and  _545
REMARK  233  A    between atoms: _545  and  _546
REMARK  234  A    between atoms: _552  and  _553
REMARK  235  A    between atoms: _558  and  _560
REMARK  236  A    between atoms: _560  and  _561
REMARK  237  A    between atoms: _560  and  _563
REMARK  238  A    between atoms: _563  and  _564
REMARK  239  A    between atoms: _567  and  _569
REMARK  240  A    between atoms: _569  and  _570
REMARK  241  A    between atoms: _569  and  _572
REMARK  242  A    between atoms: _572  and  _573
REMARK  243  A    between atoms: _573  and  _574
REMARK  244  A    between atoms: _577  and  _579
REMARK  245  A    between atoms: _579  and  _580
REMARK  246  A    between atoms: _579  and  _582
REMARK  247  A    between atoms: _585  and  _587
REMARK  248  A    between atoms: _587  and  _588
REMARK  249  A    between atoms: _591  and  _593
REMARK  250  A    between atoms: _593  and  _594
REMARK  251  A    between atoms: _593  and  _596
REMARK  252  A    between atoms: _596  and  _597
REMARK  253  A    between atoms: _597  and  _598
REMARK  254  A    between atoms: _601  and  _603
REMARK  255  A    between atoms: _603  and  _604
REMARK  256  A    between atoms: _606  and  _608
REMARK  257  A    between atoms: _608  and  _609
REMARK  258  A    between atoms: _608  and  _611
REMARK  259  A    between atoms: _611  and  _612
REMARK                            x       y       z     vdW  Elec       q    Type
REMARK                         _______ _______ _______ _____ _____    ______ ____
ROOT
ATOM      1  O   HOH     1      16.435  68.229  24.709  0.00  0.00    +0.000 OA
ENDROOT
TORSDOF 0
REMARK  Name = ../refined-set-2016/4jne/4jne_pocket.pdb
REMARK  259 active torsions:
REMARK  status: ('A' for Active; 'I' for Inactive)
REMARK    1  A    between atoms: _1  and  _3
REMARK    2  A    between atoms: _3  and  _4
REMARK    3  A    between atoms: _3  and  _6
REMARK    4  A    between atoms: _6  and  _7
REMARK    5  A    between atoms: _10  and  _12
REMARK    6  A    between atoms: _12  and  _13
REMARK    7  A    between atoms: _12  and  _15
REMARK    8  A    between atoms: _15  and  _16
REMARK    9  A    between atoms: _19  and  _21
REMARK   10  A    between atoms: _21  and  _22
REMARK   11  A    between atoms: _24  and  _26
REMARK   12  A    between atoms: _26  and  _27
REMARK   13  A    between atoms: _26  and  _29
REMARK   14  A    between atoms: _29  and  _30
REMARK   15  A    between atoms: _33  and  _35
REMARK   16  A    between atoms: _35  and  _36
REMARK   17  A    between atoms: _35  and  _38
REMARK   18  A    between atoms: _38  and  _39
REMARK   19  A    between atoms: _42  and  _44
REMARK   20  A    between atoms: _44  and  _45
REMARK   21  A    between atoms: _44  and  _47
REMARK   22  A    between atoms: _47  and  _48
REMARK   23  A    between atoms: _53  and  _55
REMARK   24  A    between atoms: _55  and  _56
REMARK   25  A    between atoms: _55  and  _58
REMARK   26  A    between atoms: _58  and  _59
REMARK   27  A    between atoms: _61  and  _63
REMARK   28  A    between atoms: _63  and  _64
REMARK   29  A    between atoms: _63  and  _66
REMARK   30  A    between atoms: _68  and  _70
REMARK   31  A    between atoms: _70  and  _71
REMARK   32  A    between atoms: _70  and  _73
REMARK   33  A    between atoms: _73  and  _74
REMARK   34  A    between atoms: _77  and  _79
REMARK   35  A    between atoms: _79  and  _80
REMARK   36  A    between atoms: _79  and  _82
REMARK   37  A    between atoms: _82  and  _83
REMARK   38  A    between atoms: _87  and  _88
REMARK   39  A    between atoms: _93  and  _95
REMARK   40  A    between atoms: _95  and  _96
REMARK   41  A    between atoms: _95  and  _98
REMARK   42  A    between atoms: _98  and  _99
REMARK   43  A    between atoms: _101  and  _103
REMARK   44  A    between atoms: _103  and  _104
REMARK   45  A    between atoms: _103  and  _106
REMARK   46  A    between atoms: _106  and  _107
REMARK   47  A    between atoms: _107  and  _108
REMARK   48  A    between atoms: _108  and  _109
REMARK   49  A    between atoms: _109  and  _110
REMARK   50  A    between atoms: _114  and  _116
REMARK   51  A    between atoms: _116  and  _117
REMARK   52  A    between atoms: _120  and  _122
REMARK   53  A    between atoms: _122  and  _123
REMARK   54  A    between atoms: _122  and  _125
REMARK   55  A    between atoms: _125  and  _126
REMARK   56  A    between atoms: _126  and  _127
REMARK   57  A    between atoms: _127  and  _128
REMARK   58  A    between atoms: _128  and  _129
REMARK   59  A    between atoms: _133  and  _135
REMARK   60  A    between atoms: _135  and  _136
REMARK   61  A    between atoms: _135  and  _138
REMARK   62  A    between atoms: _138  and  _139
REMARK   63  A    between atoms: _139  and  _140
REMARK   64  A    between atoms: _140  and  _141
REMARK   65  A    between atoms: _150  and  _152
REMARK   66  A    between atoms: _152  and  _153
REMARK   67  A    between atoms: _152  and  _155
REMARK   68  A    between atoms: _155  and  _156
REMARK   69  A    between atoms: _159  and  _161
REMARK   70  A    between atoms: _161  and  _162
REMARK   71  A    between atoms: _161  and  _164
REMARK   72  A    between atoms: _168  and  _169
REMARK   73  A    between atoms: _174  and  _176
REMARK   74  A    between atoms: _176  and  _177
REMARK   75  A    between atoms: _180  and  _182
REMARK   76  A    between atoms: _182  and  _183
REMARK   77  A    between atoms: _182  and  _185
REMARK   78  A    between atoms: _185  and  _186
REMARK   79  A    between atoms: _192  and  _194
REMARK   80  A    between atoms: _194  and  _195
REMARK   81  A    between atoms: _194  and  _197
REMARK   82  A    between atoms: _197  and  _198
REMARK   83  A    between atoms: _198  and  _199
REMARK   84  A    between atoms: _202  and  _204
REMARK   85  A    between atoms: _204  and  _205
REMARK   86  A    between atoms: _204  and  _207
REMARK   87  A    between atoms: _207  and  _208
REMARK   88  A    between atoms: _211  and  _213
REMARK   89  A    between atoms: _213  and  _214
REMARK   90  A    between atoms: _213  and  _216
REMARK   91  A    between atoms: _216  and  _217
REMARK   92  A    between atoms: _220  and  _222
REMARK   93  A    between atoms: _222  and  _223
REMARK   94  A    between atoms: _225  and  _227
REMARK   95  A    between atoms: _227  and  _228
REMARK   96  A    between atoms: _230  and  _232
REMARK   97  A    between atoms: _232  and  _233
REMARK   98  A    between atoms: _235  and  _237
REMARK   99  A    between atoms: _237  and  _238
REMARK  100  A    between atoms: _241  and  _243
REMARK  101  A    between atoms: _243  and  _244
REMARK  102  A    between atoms: _243  and  _246
REMARK  103  A    between atoms: _246  and  _247
REMARK  104  A    between atoms: _253  and  _255
REMARK  105  A    between atoms: _255  and  _256
REMARK  106  A    between atoms: _255  and  _258
REMARK  107  A    between atoms: _258  and  _259
REMARK  108  A    between atoms: _262  and  _264
REMARK  109  A    between atoms: _264  and  _265
REMARK  110  A    between atoms: _264  and  _267
REMARK  111  A    between atoms: _267  and  _268
REMARK  112  A    between atoms: _271  and  _273
REMARK  113  A    between atoms: _273  and  _274
REMARK  114  A    between atoms: _273  and  _276
REMARK  115  A    between atoms: _276  and  _277
REMARK  116  A    between atoms: _280  and  _282
REMARK  117  A    between atoms: _282  and  _283
REMARK  118  A    between atoms: _282  and  _285
REMARK  119  A    between atoms: _285  and  _286
REMARK  120  A    between atoms: _289  and  _291
REMARK  121  A    between atoms: _291  and  _292
REMARK  122  A    between atoms: _294  and  _296
REMARK  123  A    between atoms: _296  and  _297
REMARK  124  A    between atoms: _299  and  _301
REMARK  125  A    between atoms: _301  and  _302
REMARK  126  A    between atoms: _301  and  _304
REMARK  127  A    between atoms: _304  and  _305
REMARK  128  A    between atoms: _305  and  _306
REMARK  129  A    between atoms: _309  and  _311
REMARK  130  A    between atoms: _311  and  _312
REMARK  131  A    between atoms: _311  and  _314
REMARK  132  A    between atoms: _314  and  _315
REMARK  133  A    between atoms: _318  and  _320
REMARK  134  A    between atoms: _320  and  _321
REMARK  135  A    between atoms: _320  and  _323
REMARK  136  A    between atoms: _323  and  _324
REMARK  137  A    between atoms: _330  and  _332
REMARK  138  A    between atoms: _332  and  _333
REMARK  139  A    between atoms: _332  and  _335
REMARK  140  A    between atoms: _335  and  _336
REMARK  141  A    between atoms: _339  and  _341
REMARK  142  A    between atoms: _341  and  _342
REMARK  143  A    between atoms: _341  and  _344
REMARK  144  A    between atoms: _344  and  _345
REMARK  145  A    between atoms: _345  and  _346
REMARK  146  A    between atoms: _346  and  _347
REMARK  147  A    between atoms: _347  and  _348
REMARK  148  A    between atoms: _352  and  _354
REMARK  149  A    between atoms: _354  and  _355
REMARK  150  A    between atoms: _358  and  _360
REMARK  151  A    between atoms: _360  and  _361
REMARK  152  A    between atoms: _360  and  _363
REMARK  153  A    between atoms: _363  and  _364
REMARK  154  A    between atoms: _364  and  _365
REMARK  155  A    between atoms: _368  and  _370
REMARK  156  A    between atoms: _370  and  _371
REMARK  157  A    between atoms: _370  and  _373
REMARK  158  A    between atoms: _373  and  _374
REMARK  159  A    between atoms: _374  and  _375
REMARK  160  A    between atoms: _375  and  _376
REMARK  161  A    between atoms: _376  and  _377
REMARK  162  A    between atoms: _381  and  _383
REMARK  163  A    between atoms: _383  and  _384
REMARK  164  A    between atoms: _387  and  _389
REMARK  165  A    between atoms: _389  and  _390
REMARK  166  A    between atoms: _389  and  _392
REMARK  167  A    between atoms: _392  and  _393
REMARK  168  A    between atoms: _393  and  _394
REMARK  169  A    between atoms: _394  and  _395
REMARK  170  A    between atoms: _395  and  _396
REMARK  171  A    between atoms: _400  and  _402
REMARK  172  A    between atoms: _402  and  _403
REMARK  173  A    between atoms: _402  and  _405
REMARK  174  A    between atoms: _405  and  _406
REMARK  175  A    between atoms: _409  and  _411
REMARK  176  A    between atoms: _411  and  _412
REMARK  177  A    between atoms: _411  and  _414
REMARK  178  A    between atoms: _414  and  _415
REMARK  179  A    between atoms: _415  and  _416
REMARK  180  A    between atoms: _419  and  _421
REMARK  181  A    between atoms: _421  and  _422
REMARK  182  A    between atoms: _421  and  _424
REMARK  183  A    between atoms: _424  and  _425
REMARK  184  A    between atoms: _428  and  _430
REMARK  185  A    between atoms: _430  and  _431
REMARK  186  A    between atoms: _430  and  _433
REMARK  187  A    between atoms: _433  and  _434
REMARK  188  A    between atoms: _436  and  _438
REMARK  189  A    between atoms: _438  and  _439
REMARK  190  A    between atoms: _438  and  _441
REMARK  191  A    between atoms: _441  and  _442
REMARK  192  A    between atoms: _444  and  _446
REMARK  193  A    between atoms: _446  and  _447
REMARK  194  A    between atoms: _450  and  _452
REMARK  195  A    between atoms: _452  and  _453
REMARK  196  A    between atoms: _452  and  _455
REMARK  197  A    between atoms: _455  and  _456
REMARK  198  A    between atoms: _459  and  _461
REMARK  199  A    between atoms: _461  and  _462
REMARK  200  A    between atoms: _461  and  _464
REMARK  201  A    between atoms: _467  and  _469
REMARK  202  A    between atoms: _469  and  _470
REMARK  203  A    between atoms: _472  and  _474
REMARK  204  A    between atoms: _474  and  _475
REMARK  205  A    between atoms: _477  and  _479
REMARK  206  A    between atoms: _479  and  _480
REMARK  207  A    between atoms: _479  and  _482
REMARK  208  A    between atoms: _482  and  _483
REMARK  209  A    between atoms: _483  and  _484
REMARK  210  A    between atoms: _489  and  _491
REMARK  211  A    between atoms: _491  and  _492
REMARK  212  A    between atoms: _491  and  _494
REMARK  213  A    between atoms: _494  and  _495
REMARK  214  A    between atoms: _498  and  _500
REMARK  215  A    between atoms: _500  and  _501
REMARK  216  A    between atoms: _500  and  _503
REMARK  217  A    between atoms: _503  and  _504
REMARK  218  A    between atoms: _504  and  _505
REMARK  219  A    between atoms: _505  and  _506
REMARK  220  A    between atoms: _515  and  _517
REMARK  221  A    between atoms: _517  and  _518
REMARK  222  A    between atoms: _517  and  _520
REMARK  223  A    between atoms: _520  and  _521
REMARK  224  A    between atoms: _521  and  _522
REMARK  225  A    between atoms: _525  and  _526
REMARK  226  A    between atoms: _531  and  _533
REMARK  227  A    between atoms: _533  and  _534
REMARK  228  A    between atoms: _533  and  _536
REMARK  229  A    between atoms: _539  and  _541
REMARK  230  A    between atoms: _541  and  _542
REMARK  231  A    between atoms: _541  and  _544
REMARK  232  A    between atoms: _544  and  _545
REMARK  233  A    between atoms: _545  and  _546
REMARK  234  A    between atoms: _552  and  _553
REMARK  235  A    between atoms: _558  and  _560
REMARK  236  A    between atoms: _560  and  _561
REMARK  237  A    between atoms: _560  and  _563
REMARK  238  A    between atoms: _563  and  _564
REMARK  239  A    between atoms: _567  and  _569
REMARK  240  A    between atoms: _569  and  _570
REMARK  241  A    between atoms: _569  and  _572
REMARK  242  A    between atoms: _572  and  _573
REMARK  243  A    between atoms: _573  and  _574
REMARK  244  A    between atoms: _577  and  _579
REMARK  245  A    between atoms: _579  and  _580
REMARK  246  A    between atoms: _579  and  _582
REMARK  247  A    between atoms: _585  and  _587
REMARK  248  A    between atoms: _587  and  _588
REMARK  249  A    between atoms: _591  and  _593
REMARK  250  A    between atoms: _593  and  _594
REMARK  251  A    between atoms: _593  and  _596
REMARK  252  A    between atoms: _596  and  _597
REMARK  253  A    between atoms: _597  and  _598
REMARK  254  A    between atoms: _601  and  _603
REMARK  255  A    between atoms: _603  and  _604
REMARK  256  A    between atoms: _606  and  _608
REMARK  257  A    between atoms: _608  and  _609
REMARK  258  A    between atoms: _608  and  _611
REMARK  259  A    between atoms: _611  and  _612
REMARK                            x       y       z     vdW  Elec       q    Type
REMARK                         _______ _______ _______ _____ _____    ______ ____
ROOT
ATOM      1  O   HOH     1      12.747  73.304  25.804  0.00  0.00    +0.000 OA
ENDROOT
TORSDOF 0
REMARK  Name = ../refined-set-2016/4jne/4jne_pocket.pdb
REMARK  259 active torsions:
REMARK  status: ('A' for Active; 'I' for Inactive)
REMARK    1  A    between atoms: _1  and  _3
REMARK    2  A    between atoms: _3  and  _4
REMARK    3  A    between atoms: _3  and  _6
REMARK    4  A    between atoms: _6  and  _7
REMARK    5  A    between atoms: _10  and  _12
REMARK    6  A    between atoms: _12  and  _13
REMARK    7  A    between atoms: _12  and  _15
REMARK    8  A    between atoms: _15  and  _16
REMARK    9  A    between atoms: _19  and  _21
REMARK   10  A    between atoms: _21  and  _22
REMARK   11  A    between atoms: _24  and  _26
REMARK   12  A    between atoms: _26  and  _27
REMARK   13  A    between atoms: _26  and  _29
REMARK   14  A    between atoms: _29  and  _30
REMARK   15  A    between atoms: _33  and  _35
REMARK   16  A    between atoms: _35  and  _36
REMARK   17  A    between atoms: _35  and  _38
REMARK   18  A    between atoms: _38  and  _39
REMARK   19  A    between atoms: _42  and  _44
REMARK   20  A    between atoms: _44  and  _45
REMARK   21  A    between atoms: _44  and  _47
REMARK   22  A    between atoms: _47  and  _48
REMARK   23  A    between atoms: _53  and  _55
REMARK   24  A    between atoms: _55  and  _56
REMARK   25  A    between atoms: _55  and  _58
REMARK   26  A    between atoms: _58  and  _59
REMARK   27  A    between atoms: _61  and  _63
REMARK   28  A    between atoms: _63  and  _64
REMARK   29  A    between atoms: _63  and  _66
REMARK   30  A    between atoms: _68  and  _70
REMARK   31  A    between atoms: _70  and  _71
REMARK   32  A    between atoms: _70  and  _73
REMARK   33  A    between atoms: _73  and  _74
REMARK   34  A    between atoms: _77  and  _79
REMARK   35  A    between atoms: _79  and  _80
REMARK   36  A    between atoms: _79  and  _82
REMARK   37  A    between atoms: _82  and  _83
REMARK   38  A    between atoms: _87  and  _88
REMARK   39  A    between atoms: _93  and  _95
REMARK   40  A    between atoms: _95  and  _96
REMARK   41  A    between atoms: _95  and  _98
REMARK   42  A    between atoms: _98  and  _99
REMARK   43  A    between atoms: _101  and  _103
REMARK   44  A    between atoms: _103  and  _104
REMARK   45  A    between atoms: _103  and  _106
REMARK   46  A    between atoms: _106  and  _107
REMARK   47  A    between atoms: _107  and  _108
REMARK   48  A    between atoms: _108  and  _109
REMARK   49  A    between atoms: _109  and  _110
REMARK   50  A    between atoms: _114  and  _116
REMARK   51  A    between atoms: _116  and  _117
REMARK   52  A    between atoms: _120  and  _122
REMARK   53  A    between atoms: _122  and  _123
REMARK   54  A    between atoms: _122  and  _125
REMARK   55  A    between atoms: _125  and  _126
REMARK   56  A    between atoms: _126  and  _127
REMARK   57  A    between atoms: _127  and  _128
REMARK   58  A    between atoms: _128  and  _129
REMARK   59  A    between atoms: _133  and  _135
REMARK   60  A    between atoms: _135  and  _136
REMARK   61  A    between atoms: _135  and  _138
REMARK   62  A    between atoms: _138  and  _139
REMARK   63  A    between atoms: _139  and  _140
REMARK   64  A    between atoms: _140  and  _141
REMARK   65  A    between atoms: _150  and  _152
REMARK   66  A    between atoms: _152  and  _153
REMARK   67  A    between atoms: _152  and  _155
REMARK   68  A    between atoms: _155  and  _156
REMARK   69  A    between atoms: _159  and  _161
REMARK   70  A    between atoms: _161  and  _162
REMARK   71  A    between atoms: _161  and  _164
REMARK   72  A    between atoms: _168  and  _169
REMARK   73  A    between atoms: _174  and  _176
REMARK   74  A    between atoms: _176  and  _177
REMARK   75  A    between atoms: _180  and  _182
REMARK   76  A    between atoms: _182  and  _183
REMARK   77  A    between atoms: _182  and  _185
REMARK   78  A    between atoms: _185  and  _186
REMARK   79  A    between atoms: _192  and  _194
REMARK   80  A    between atoms: _194  and  _195
REMARK   81  A    between atoms: _194  and  _197
REMARK   82  A    between atoms: _197  and  _198
REMARK   83  A    between atoms: _198  and  _199
REMARK   84  A    between atoms: _202  and  _204
REMARK   85  A    between atoms: _204  and  _205
REMARK   86  A    between atoms: _204  and  _207
REMARK   87  A    between atoms: _207  and  _208
REMARK   88  A    between atoms: _211  and  _213
REMARK   89  A    between atoms: _213  and  _214
REMARK   90  A    between atoms: _213  and  _216
REMARK   91  A    between atoms: _216  and  _217
REMARK   92  A    between atoms: _220  and  _222
REMARK   93  A    between atoms: _222  and  _223
REMARK   94  A    between atoms: _225  and  _227
REMARK   95  A    between atoms: _227  and  _228
REMARK   96  A    between atoms: _230  and  _232
REMARK   97  A    between atoms: _232  and  _233
REMARK   98  A    between atoms: _235  and  _237
REMARK   99  A    between atoms: _237  and  _238
REMARK  100  A    between atoms: _241  and  _243
REMARK  101  A    between atoms: _243  and  _244
REMARK  102  A    between atoms: _243  and  _246
REMARK  103  A    between atoms: _246  and  _247
REMARK  104  A    between atoms: _253  and  _255
REMARK  105  A    between atoms: _255  and  _256
REMARK  106  A    between atoms: _255  and  _258
REMARK  107  A    between atoms: _258  and  _259
REMARK  108  A    between atoms: _262  and  _264
REMARK  109  A    between atoms: _264  and  _265
REMARK  110  A    between atoms: _264  and  _267
REMARK  111  A    between atoms: _267  and  _268
REMARK  112  A    between atoms: _271  and  _273
REMARK  113  A    between atoms: _273  and  _274
REMARK  114  A    between atoms: _273  and  _276
REMARK  115  A    between atoms: _276  and  _277
REMARK  116  A    between atoms: _280  and  _282
REMARK  117  A    between atoms: _282  and  _283
REMARK  118  A    between atoms: _282  and  _285
REMARK  119  A    between atoms: _285  and  _286
REMARK  120  A    between atoms: _289  and  _291
REMARK  121  A    between atoms: _291  and  _292
REMARK  122  A    between atoms: _294  and  _296
REMARK  123  A    between atoms: _296  and  _297
REMARK  124  A    between atoms: _299  and  _301
REMARK  125  A    between atoms: _301  and  _302
REMARK  126  A    between atoms: _301  and  _304
REMARK  127  A    between atoms: _304  and  _305
REMARK  128  A    between atoms: _305  and  _306
REMARK  129  A    between atoms: _309  and  _311
REMARK  130  A    between atoms: _311  and  _312
REMARK  131  A    between atoms: _311  and  _314
REMARK  132  A    between atoms: _314  and  _315
REMARK  133  A    between atoms: _318  and  _320
REMARK  134  A    between atoms: _320  and  _321
REMARK  135  A    between atoms: _320  and  _323
REMARK  136  A    between atoms: _323  and  _324
REMARK  137  A    between atoms: _330  and  _332
REMARK  138  A    between atoms: _332  and  _333
REMARK  139  A    between atoms: _332  and  _335
REMARK  140  A    between atoms: _335  and  _336
REMARK  141  A    between atoms: _339  and  _341
REMARK  142  A    between atoms: _341  and  _342
REMARK  143  A    between atoms: _341  and  _344
REMARK  144  A    between atoms: _344  and  _345
REMARK  145  A    between atoms: _345  and  _346
REMARK  146  A    between atoms: _346  and  _347
REMARK  147  A    between atoms: _347  and  _348
REMARK  148  A    between atoms: _352  and  _354
REMARK  149  A    between atoms: _354  and  _355
REMARK  150  A    between atoms: _358  and  _360
REMARK  151  A    between atoms: _360  and  _361
REMARK  152  A    between atoms: _360  and  _363
REMARK  153  A    between atoms: _363  and  _364
REMARK  154  A    between atoms: _364  and  _365
REMARK  155  A    between atoms: _368  and  _370
REMARK  156  A    between atoms: _370  and  _371
REMARK  157  A    between atoms: _370  and  _373
REMARK  158  A    between atoms: _373  and  _374
REMARK  159  A    between atoms: _374  and  _375
REMARK  160  A    between atoms: _375  and  _376
REMARK  161  A    between atoms: _376  and  _377
REMARK  162  A    between atoms: _381  and  _383
REMARK  163  A    between atoms: _383  and  _384
REMARK  164  A    between atoms: _387  and  _389
REMARK  165  A    between atoms: _389  and  _390
REMARK  166  A    between atoms: _389  and  _392
REMARK  167  A    between atoms: _392  and  _393
REMARK  168  A    between atoms: _393  and  _394
REMARK  169  A    between atoms: _394  and  _395
REMARK  170  A    between atoms: _395  and  _396
REMARK  171  A    between atoms: _400  and  _402
REMARK  172  A    between atoms: _402  and  _403
REMARK  173  A    between atoms: _402  and  _405
REMARK  174  A    between atoms: _405  and  _406
REMARK  175  A    between atoms: _409  and  _411
REMARK  176  A    between atoms: _411  and  _412
REMARK  177  A    between atoms: _411  and  _414
REMARK  178  A    between atoms: _414  and  _415
REMARK  179  A    between atoms: _415  and  _416
REMARK  180  A    between atoms: _419  and  _421
REMARK  181  A    between atoms: _421  and  _422
REMARK  182  A    between atoms: _421  and  _424
REMARK  183  A    between atoms: _424  and  _425
REMARK  184  A    between atoms: _428  and  _430
REMARK  185  A    between atoms: _430  and  _431
REMARK  186  A    between atoms: _430  and  _433
REMARK  187  A    between atoms: _433  and  _434
REMARK  188  A    between atoms: _436  and  _438
REMARK  189  A    between atoms: _438  and  _439
REMARK  190  A    between atoms: _438  and  _441
REMARK  191  A    between atoms: _441  and  _442
REMARK  192  A    between atoms: _444  and  _446
REMARK  193  A    between atoms: _446  and  _447
REMARK  194  A    between atoms: _450  and  _452
REMARK  195  A    between atoms: _452  and  _453
REMARK  196  A    between atoms: _452  and  _455
REMARK  197  A    between atoms: _455  and  _456
REMARK  198  A    between atoms: _459  and  _461
REMARK  199  A    between atoms: _461  and  _462
REMARK  200  A    between atoms: _461  and  _464
REMARK  201  A    between atoms: _467  and  _469
REMARK  202  A    between atoms: _469  and  _470
REMARK  203  A    between atoms: _472  and  _474
REMARK  204  A    between atoms: _474  and  _475
REMARK  205  A    between atoms: _477  and  _479
REMARK  206  A    between atoms: _479  and  _480
REMARK  207  A    between atoms: _479  and  _482
REMARK  208  A    between atoms: _482  and  _483
REMARK  209  A    between atoms: _483  and  _484
REMARK  210  A    between atoms: _489  and  _491
REMARK  211  A    between atoms: _491  and  _492
REMARK  212  A    between atoms: _491  and  _494
REMARK  213  A    between atoms: _494  and  _495
REMARK  214  A    between atoms: _498  and  _500
REMARK  215  A    between atoms: _500  and  _501
REMARK  216  A    between atoms: _500  and  _503
REMARK  217  A    between atoms: _503  and  _504
REMARK  218  A    between atoms: _504  and  _505
REMARK  219  A    between atoms: _505  and  _506
REMARK  220  A    between atoms: _515  and  _517
REMARK  221  A    between atoms: _517  and  _518
REMARK  222  A    between atoms: _517  and  _520
REMARK  223  A    between atoms: _520  and  _521
REMARK  224  A    between atoms: _521  and  _522
REMARK  225  A    between atoms: _525  and  _526
REMARK  226  A    between atoms: _531  and  _533
REMARK  227  A    between atoms: _533  and  _534
REMARK  228  A    between atoms: _533  and  _536
REMARK  229  A    between atoms: _539  and  _541
REMARK  230  A    between atoms: _541  and  _542
REMARK  231  A    between atoms: _541  and  _544
REMARK  232  A    between atoms: _544  and  _545
REMARK  233  A    between atoms: _545  and  _546
REMARK  234  A    between atoms: _552  and  _553
REMARK  235  A    between atoms: _558  and  _560
REMARK  236  A    between atoms: _560  and  _561
REMARK  237  A    between atoms: _560  and  _563
REMARK  238  A    between atoms: _563  and  _564
REMARK  239  A    between atoms: _567  and  _569
REMARK  240  A    between atoms: _569  and  _570
REMARK  241  A    between atoms: _569  and  _572
REMARK  242  A    between atoms: _572  and  _573
REMARK  243  A    between atoms: _573  and  _574
REMARK  244  A    between atoms: _577  and  _579
REMARK  245  A    between atoms: _579  and  _580
REMARK  246  A    between atoms: _579  and  _582
REMARK  247  A    between atoms: _585  and  _587
REMARK  248  A    between atoms: _587  and  _588
REMARK  249  A    between atoms: _591  and  _593
REMARK  250  A    between atoms: _593  and  _594
REMARK  251  A    between atoms: _593  and  _596
REMARK  252  A    between atoms: _596  and  _597
REMARK  253  A    between atoms: _597  and  _598
REMARK  254  A    between atoms: _601  and  _603
REMARK  255  A    between atoms: _603  and  _604
REMARK  256  A    between atoms: _606  and  _608
REMARK  257  A    between atoms: _608  and  _609
REMARK  258  A    between atoms: _608  and  _611
REMARK  259  A    between atoms: _611  and  _612
REMARK                            x       y       z     vdW  Elec       q    Type
REMARK                         _______ _______ _______ _____ _____    ______ ____
ROOT
ATOM      1  O   HOH     1      17.192  71.228  28.320  0.00  0.00    +0.000 OA
ENDROOT
TORSDOF 0
REMARK  Name = ../refined-set-2016/4jne/4jne_pocket.pdb
REMARK  259 active torsions:
REMARK  status: ('A' for Active; 'I' for Inactive)
REMARK    1  A    between atoms: _1  and  _3
REMARK    2  A    between atoms: _3  and  _4
REMARK    3  A    between atoms: _3  and  _6
REMARK    4  A    between atoms: _6  and  _7
REMARK    5  A    between atoms: _10  and  _12
REMARK    6  A    between atoms: _12  and  _13
REMARK    7  A    between atoms: _12  and  _15
REMARK    8  A    between atoms: _15  and  _16
REMARK    9  A    between atoms: _19  and  _21
REMARK   10  A    between atoms: _21  and  _22
REMARK   11  A    between atoms: _24  and  _26
REMARK   12  A    between atoms: _26  and  _27
REMARK   13  A    between atoms: _26  and  _29
REMARK   14  A    between atoms: _29  and  _30
REMARK   15  A    between atoms: _33  and  _35
REMARK   16  A    between atoms: _35  and  _36
REMARK   17  A    between atoms: _35  and  _38
REMARK   18  A    between atoms: _38  and  _39
REMARK   19  A    between atoms: _42  and  _44
REMARK   20  A    between atoms: _44  and  _45
REMARK   21  A    between atoms: _44  and  _47
REMARK   22  A    between atoms: _47  and  _48
REMARK   23  A    between atoms: _53  and  _55
REMARK   24  A    between atoms: _55  and  _56
REMARK   25  A    between atoms: _55  and  _58
REMARK   26  A    between atoms: _58  and  _59
REMARK   27  A    between atoms: _61  and  _63
REMARK   28  A    between atoms: _63  and  _64
REMARK   29  A    between atoms: _63  and  _66
REMARK   30  A    between atoms: _68  and  _70
REMARK   31  A    between atoms: _70  and  _71
REMARK   32  A    between atoms: _70  and  _73
REMARK   33  A    between atoms: _73  and  _74
REMARK   34  A    between atoms: _77  and  _79
REMARK   35  A    between atoms: _79  and  _80
REMARK   36  A    between atoms: _79  and  _82
REMARK   37  A    between atoms: _82  and  _83
REMARK   38  A    between atoms: _87  and  _88
REMARK   39  A    between atoms: _93  and  _95
REMARK   40  A    between atoms: _95  and  _96
REMARK   41  A    between atoms: _95  and  _98
REMARK   42  A    between atoms: _98  and  _99
REMARK   43  A    between atoms: _101  and  _103
REMARK   44  A    between atoms: _103  and  _104
REMARK   45  A    between atoms: _103  and  _106
REMARK   46  A    between atoms: _106  and  _107
REMARK   47  A    between atoms: _107  and  _108
REMARK   48  A    between atoms: _108  and  _109
REMARK   49  A    between atoms: _109  and  _110
REMARK   50  A    between atoms: _114  and  _116
REMARK   51  A    between atoms: _116  and  _117
REMARK   52  A    between atoms: _120  and  _122
REMARK   53  A    between atoms: _122  and  _123
REMARK   54  A    between atoms: _122  and  _125
REMARK   55  A    between atoms: _125  and  _126
REMARK   56  A    between atoms: _126  and  _127
REMARK   57  A    between atoms: _127  and  _128
REMARK   58  A    between atoms: _128  and  _129
REMARK   59  A    between atoms: _133  and  _135
REMARK   60  A    between atoms: _135  and  _136
REMARK   61  A    between atoms: _135  and  _138
REMARK   62  A    between atoms: _138  and  _139
REMARK   63  A    between atoms: _139  and  _140
REMARK   64  A    between atoms: _140  and  _141
REMARK   65  A    between atoms: _150  and  _152
REMARK   66  A    between atoms: _152  and  _153
REMARK   67  A    between atoms: _152  and  _155
REMARK   68  A    between atoms: _155  and  _156
REMARK   69  A    between atoms: _159  and  _161
REMARK   70  A    between atoms: _161  and  _162
REMARK   71  A    between atoms: _161  and  _164
REMARK   72  A    between atoms: _168  and  _169
REMARK   73  A    between atoms: _174  and  _176
REMARK   74  A    between atoms: _176  and  _177
REMARK   75  A    between atoms: _180  and  _182
REMARK   76  A    between atoms: _182  and  _183
REMARK   77  A    between atoms: _182  and  _185
REMARK   78  A    between atoms: _185  and  _186
REMARK   79  A    between atoms: _192  and  _194
REMARK   80  A    between atoms: _194  and  _195
REMARK   81  A    between atoms: _194  and  _197
REMARK   82  A    between atoms: _197  and  _198
REMARK   83  A    between atoms: _198  and  _199
REMARK   84  A    between atoms: _202  and  _204
REMARK   85  A    between atoms: _204  and  _205
REMARK   86  A    between atoms: _204  and  _207
REMARK   87  A    between atoms: _207  and  _208
REMARK   88  A    between atoms: _211  and  _213
REMARK   89  A    between atoms: _213  and  _214
REMARK   90  A    between atoms: _213  and  _216
REMARK   91  A    between atoms: _216  and  _217
REMARK   92  A    between atoms: _220  and  _222
REMARK   93  A    between atoms: _222  and  _223
REMARK   94  A    between atoms: _225  and  _227
REMARK   95  A    between atoms: _227  and  _228
REMARK   96  A    between atoms: _230  and  _232
REMARK   97  A    between atoms: _232  and  _233
REMARK   98  A    between atoms: _235  and  _237
REMARK   99  A    between atoms: _237  and  _238
REMARK  100  A    between atoms: _241  and  _243
REMARK  101  A    between atoms: _243  and  _244
REMARK  102  A    between atoms: _243  and  _246
REMARK  103  A    between atoms: _246  and  _247
REMARK  104  A    between atoms: _253  and  _255
REMARK  105  A    between atoms: _255  and  _256
REMARK  106  A    between atoms: _255  and  _258
REMARK  107  A    between atoms: _258  and  _259
REMARK  108  A    between atoms: _262  and  _264
REMARK  109  A    between atoms: _264  and  _265
REMARK  110  A    between atoms: _264  and  _267
REMARK  111  A    between atoms: _267  and  _268
REMARK  112  A    between atoms: _271  and  _273
REMARK  113  A    between atoms: _273  and  _274
REMARK  114  A    between atoms: _273  and  _276
REMARK  115  A    between atoms: _276  and  _277
REMARK  116  A    between atoms: _280  and  _282
REMARK  117  A    between atoms: _282  and  _283
REMARK  118  A    between atoms: _282  and  _285
REMARK  119  A    between atoms: _285  and  _286
REMARK  120  A    between atoms: _289  and  _291
REMARK  121  A    between atoms: _291  and  _292
REMARK  122  A    between atoms: _294  and  _296
REMARK  123  A    between atoms: _296  and  _297
REMARK  124  A    between atoms: _299  and  _301
REMARK  125  A    between atoms: _301  and  _302
REMARK  126  A    between atoms: _301  and  _304
REMARK  127  A    between atoms: _304  and  _305
REMARK  128  A    between atoms: _305  and  _306
REMARK  129  A    between atoms: _309  and  _311
REMARK  130  A    between atoms: _311  and  _312
REMARK  131  A    between atoms: _311  and  _314
REMARK  132  A    between atoms: _314  and  _315
REMARK  133  A    between atoms: _318  and  _320
REMARK  134  A    between atoms: _320  and  _321
REMARK  135  A    between atoms: _320  and  _323
REMARK  136  A    between atoms: _323  and  _324
REMARK  137  A    between atoms: _330  and  _332
REMARK  138  A    between atoms: _332  and  _333
REMARK  139  A    between atoms: _332  and  _335
REMARK  140  A    between atoms: _335  and  _336
REMARK  141  A    between atoms: _339  and  _341
REMARK  142  A    between atoms: _341  and  _342
REMARK  143  A    between atoms: _341  and  _344
REMARK  144  A    between atoms: _344  and  _345
REMARK  145  A    between atoms: _345  and  _346
REMARK  146  A    between atoms: _346  and  _347
REMARK  147  A    between atoms: _347  and  _348
REMARK  148  A    between atoms: _352  and  _354
REMARK  149  A    between atoms: _354  and  _355
REMARK  150  A    between atoms: _358  and  _360
REMARK  151  A    between atoms: _360  and  _361
REMARK  152  A    between atoms: _360  and  _363
REMARK  153  A    between atoms: _363  and  _364
REMARK  154  A    between atoms: _364  and  _365
REMARK  155  A    between atoms: _368  and  _370
REMARK  156  A    between atoms: _370  and  _371
REMARK  157  A    between atoms: _370  and  _373
REMARK  158  A    between atoms: _373  and  _374
REMARK  159  A    between atoms: _374  and  _375
REMARK  160  A    between atoms: _375  and  _376
REMARK  161  A    between atoms: _376  and  _377
REMARK  162  A    between atoms: _381  and  _383
REMARK  163  A    between atoms: _383  and  _384
REMARK  164  A    between atoms: _387  and  _389
REMARK  165  A    between atoms: _389  and  _390
REMARK  166  A    between atoms: _389  and  _392
REMARK  167  A    between atoms: _392  and  _393
REMARK  168  A    between atoms: _393  and  _394
REMARK  169  A    between atoms: _394  and  _395
REMARK  170  A    between atoms: _395  and  _396
REMARK  171  A    between atoms: _400  and  _402
REMARK  172  A    between atoms: _402  and  _403
REMARK  173  A    between atoms: _402  and  _405
REMARK  174  A    between atoms: _405  and  _406
REMARK  175  A    between atoms: _409  and  _411
REMARK  176  A    between atoms: _411  and  _412
REMARK  177  A    between atoms: _411  and  _414
REMARK  178  A    between atoms: _414  and  _415
REMARK  179  A    between atoms: _415  and  _416
REMARK  180  A    between atoms: _419  and  _421
REMARK  181  A    between atoms: _421  and  _422
REMARK  182  A    between atoms: _421  and  _424
REMARK  183  A    between atoms: _424  and  _425
REMARK  184  A    between atoms: _428  and  _430
REMARK  185  A    between atoms: _430  and  _431
REMARK  186  A    between atoms: _430  and  _433
REMARK  187  A    between atoms: _433  and  _434
REMARK  188  A    between atoms: _436  and  _438
REMARK  189  A    between atoms: _438  and  _439
REMARK  190  A    between atoms: _438  and  _441
REMARK  191  A    between atoms: _441  and  _442
REMARK  192  A    between atoms: _444  and  _446
REMARK  193  A    between atoms: _446  and  _447
REMARK  194  A    between atoms: _450  and  _452
REMARK  195  A    between atoms: _452  and  _453
REMARK  196  A    between atoms: _452  and  _455
REMARK  197  A    between atoms: _455  and  _456
REMARK  198  A    between atoms: _459  and  _461
REMARK  199  A    between atoms: _461  and  _462
REMARK  200  A    between atoms: _461  and  _464
REMARK  201  A    between atoms: _467  and  _469
REMARK  202  A    between atoms: _469  and  _470
REMARK  203  A    between atoms: _472  and  _474
REMARK  204  A    between atoms: _474  and  _475
REMARK  205  A    between atoms: _477  and  _479
REMARK  206  A    between atoms: _479  and  _480
REMARK  207  A    between atoms: _479  and  _482
REMARK  208  A    between atoms: _482  and  _483
REMARK  209  A    between atoms: _483  and  _484
REMARK  210  A    between atoms: _489  and  _491
REMARK  211  A    between atoms: _491  and  _492
REMARK  212  A    between atoms: _491  and  _494
REMARK  213  A    between atoms: _494  and  _495
REMARK  214  A    between atoms: _498  and  _500
REMARK  215  A    between atoms: _500  and  _501
REMARK  216  A    between atoms: _500  and  _503
REMARK  217  A    between atoms: _503  and  _504
REMARK  218  A    between atoms: _504  and  _505
REMARK  219  A    between atoms: _505  and  _506
REMARK  220  A    between atoms: _515  and  _517
REMARK  221  A    between atoms: _517  and  _518
REMARK  222  A    between atoms: _517  and  _520
REMARK  223  A    between atoms: _520  and  _521
REMARK  224  A    between atoms: _521  and  _522
REMARK  225  A    between atoms: _525  and  _526
REMARK  226  A    between atoms: _531  and  _533
REMARK  227  A    between atoms: _533  and  _534
REMARK  228  A    between atoms: _533  and  _536
REMARK  229  A    between atoms: _539  and  _541
REMARK  230  A    between atoms: _541  and  _542
REMARK  231  A    between atoms: _541  and  _544
REMARK  232  A    between atoms: _544  and  _545
REMARK  233  A    between atoms: _545  and  _546
REMARK  234  A    between atoms: _552  and  _553
REMARK  235  A    between atoms: _558  and  _560
REMARK  236  A    between atoms: _560  and  _561
REMARK  237  A    between atoms: _560  and  _563
REMARK  238  A    between atoms: _563  and  _564
REMARK  239  A    between atoms: _567  and  _569
REMARK  240  A    between atoms: _569  and  _570
REMARK  241  A    between atoms: _569  and  _572
REMARK  242  A    between atoms: _572  and  _573
REMARK  243  A    between atoms: _573  and  _574
REMARK  244  A    between atoms: _577  and  _579
REMARK  245  A    between atoms: _579  and  _580
REMARK  246  A    between atoms: _579  and  _582
REMARK  247  A    between atoms: _585  and  _587
REMARK  248  A    between atoms: _587  and  _588
REMARK  249  A    between atoms: _591  and  _593
REMARK  250  A    between atoms: _593  and  _594
REMARK  251  A    between atoms: _593  and  _596
REMARK  252  A    between atoms: _596  and  _597
REMARK  253  A    between atoms: _597  and  _598
REMARK  254  A    between atoms: _601  and  _603
REMARK  255  A    between atoms: _603  and  _604
REMARK  256  A    between atoms: _606  and  _608
REMARK  257  A    between atoms: _608  and  _609
REMARK  258  A    between atoms: _608  and  _611
REMARK  259  A    between atoms: _611  and  _612
REMARK                            x       y       z     vdW  Elec       q    Type
REMARK                         _______ _______ _______ _____ _____    ______ ____
ROOT
ATOM      1  O   HOH     1      13.630  81.390  22.256  0.00  0.00    +0.000 OA
ENDROOT
TORSDOF 0
REMARK  Name = ../refined-set-2016/4jne/4jne_pocket.pdb
REMARK  259 active torsions:
REMARK  status: ('A' for Active; 'I' for Inactive)
REMARK    1  A    between atoms: _1  and  _3
REMARK    2  A    between atoms: _3  and  _4
REMARK    3  A    between atoms: _3  and  _6
REMARK    4  A    between atoms: _6  and  _7
REMARK    5  A    between atoms: _10  and  _12
REMARK    6  A    between atoms: _12  and  _13
REMARK    7  A    between atoms: _12  and  _15
REMARK    8  A    between atoms: _15  and  _16
REMARK    9  A    between atoms: _19  and  _21
REMARK   10  A    between atoms: _21  and  _22
REMARK   11  A    between atoms: _24  and  _26
REMARK   12  A    between atoms: _26  and  _27
REMARK   13  A    between atoms: _26  and  _29
REMARK   14  A    between atoms: _29  and  _30
REMARK   15  A    between atoms: _33  and  _35
REMARK   16  A    between atoms: _35  and  _36
REMARK   17  A    between atoms: _35  and  _38
REMARK   18  A    between atoms: _38  and  _39
REMARK   19  A    between atoms: _42  and  _44
REMARK   20  A    between atoms: _44  and  _45
REMARK   21  A    between atoms: _44  and  _47
REMARK   22  A    between atoms: _47  and  _48
REMARK   23  A    between atoms: _53  and  _55
REMARK   24  A    between atoms: _55  and  _56
REMARK   25  A    between atoms: _55  and  _58
REMARK   26  A    between atoms: _58  and  _59
REMARK   27  A    between atoms: _61  and  _63
REMARK   28  A    between atoms: _63  and  _64
REMARK   29  A    between atoms: _63  and  _66
REMARK   30  A    between atoms: _68  and  _70
REMARK   31  A    between atoms: _70  and  _71
REMARK   32  A    between atoms: _70  and  _73
REMARK   33  A    between atoms: _73  and  _74
REMARK   34  A    between atoms: _77  and  _79
REMARK   35  A    between atoms: _79  and  _80
REMARK   36  A    between atoms: _79  and  _82
REMARK   37  A    between atoms: _82  and  _83
REMARK   38  A    between atoms: _87  and  _88
REMARK   39  A    between atoms: _93  and  _95
REMARK   40  A    between atoms: _95  and  _96
REMARK   41  A    between atoms: _95  and  _98
REMARK   42  A    between atoms: _98  and  _99
REMARK   43  A    between atoms: _101  and  _103
REMARK   44  A    between atoms: _103  and  _104
REMARK   45  A    between atoms: _103  and  _106
REMARK   46  A    between atoms: _106  and  _107
REMARK   47  A    between atoms: _107  and  _108
REMARK   48  A    between atoms: _108  and  _109
REMARK   49  A    between atoms: _109  and  _110
REMARK   50  A    between atoms: _114  and  _116
REMARK   51  A    between atoms: _116  and  _117
REMARK   52  A    between atoms: _120  and  _122
REMARK   53  A    between atoms: _122  and  _123
REMARK   54  A    between atoms: _122  and  _125
REMARK   55  A    between atoms: _125  and  _126
REMARK   56  A    between atoms: _126  and  _127
REMARK   57  A    between atoms: _127  and  _128
REMARK   58  A    between atoms: _128  and  _129
REMARK   59  A    between atoms: _133  and  _135
REMARK   60  A    between atoms: _135  and  _136
REMARK   61  A    between atoms: _135  and  _138
REMARK   62  A    between atoms: _138  and  _139
REMARK   63  A    between atoms: _139  and  _140
REMARK   64  A    between atoms: _140  and  _141
REMARK   65  A    between atoms: _150  and  _152
REMARK   66  A    between atoms: _152  and  _153
REMARK   67  A    between atoms: _152  and  _155
REMARK   68  A    between atoms: _155  and  _156
REMARK   69  A    between atoms: _159  and  _161
REMARK   70  A    between atoms: _161  and  _162
REMARK   71  A    between atoms: _161  and  _164
REMARK   72  A    between atoms: _168  and  _169
REMARK   73  A    between atoms: _174  and  _176
REMARK   74  A    between atoms: _176  and  _177
REMARK   75  A    between atoms: _180  and  _182
REMARK   76  A    between atoms: _182  and  _183
REMARK   77  A    between atoms: _182  and  _185
REMARK   78  A    between atoms: _185  and  _186
REMARK   79  A    between atoms: _192  and  _194
REMARK   80  A    between atoms: _194  and  _195
REMARK   81  A    between atoms: _194  and  _197
REMARK   82  A    between atoms: _197  and  _198
REMARK   83  A    between atoms: _198  and  _199
REMARK   84  A    between atoms: _202  and  _204
REMARK   85  A    between atoms: _204  and  _205
REMARK   86  A    between atoms: _204  and  _207
REMARK   87  A    between atoms: _207  and  _208
REMARK   88  A    between atoms: _211  and  _213
REMARK   89  A    between atoms: _213  and  _214
REMARK   90  A    between atoms: _213  and  _216
REMARK   91  A    between atoms: _216  and  _217
REMARK   92  A    between atoms: _220  and  _222
REMARK   93  A    between atoms: _222  and  _223
REMARK   94  A    between atoms: _225  and  _227
REMARK   95  A    between atoms: _227  and  _228
REMARK   96  A    between atoms: _230  and  _232
REMARK   97  A    between atoms: _232  and  _233
REMARK   98  A    between atoms: _235  and  _237
REMARK   99  A    between atoms: _237  and  _238
REMARK  100  A    between atoms: _241  and  _243
REMARK  101  A    between atoms: _243  and  _244
REMARK  102  A    between atoms: _243  and  _246
REMARK  103  A    between atoms: _246  and  _247
REMARK  104  A    between atoms: _253  and  _255
REMARK  105  A    between atoms: _255  and  _256
REMARK  106  A    between atoms: _255  and  _258
REMARK  107  A    between atoms: _258  and  _259
REMARK  108  A    between atoms: _262  and  _264
REMARK  109  A    between atoms: _264  and  _265
REMARK  110  A    between atoms: _264  and  _267
REMARK  111  A    between atoms: _267  and  _268
REMARK  112  A    between atoms: _271  and  _273
REMARK  113  A    between atoms: _273  and  _274
REMARK  114  A    between atoms: _273  and  _276
REMARK  115  A    between atoms: _276  and  _277
REMARK  116  A    between atoms: _280  and  _282
REMARK  117  A    between atoms: _282  and  _283
REMARK  118  A    between atoms: _282  and  _285
REMARK  119  A    between atoms: _285  and  _286
REMARK  120  A    between atoms: _289  and  _291
REMARK  121  A    between atoms: _291  and  _292
REMARK  122  A    between atoms: _294  and  _296
REMARK  123  A    between atoms: _296  and  _297
REMARK  124  A    between atoms: _299  and  _301
REMARK  125  A    between atoms: _301  and  _302
REMARK  126  A    between atoms: _301  and  _304
REMARK  127  A    between atoms: _304  and  _305
REMARK  128  A    between atoms: _305  and  _306
REMARK  129  A    between atoms: _309  and  _311
REMARK  130  A    between atoms: _311  and  _312
REMARK  131  A    between atoms: _311  and  _314
REMARK  132  A    between atoms: _314  and  _315
REMARK  133  A    between atoms: _318  and  _320
REMARK  134  A    between atoms: _320  and  _321
REMARK  135  A    between atoms: _320  and  _323
REMARK  136  A    between atoms: _323  and  _324
REMARK  137  A    between atoms: _330  and  _332
REMARK  138  A    between atoms: _332  and  _333
REMARK  139  A    between atoms: _332  and  _335
REMARK  140  A    between atoms: _335  and  _336
REMARK  141  A    between atoms: _339  and  _341
REMARK  142  A    between atoms: _341  and  _342
REMARK  143  A    between atoms: _341  and  _344
REMARK  144  A    between atoms: _344  and  _345
REMARK  145  A    between atoms: _345  and  _346
REMARK  146  A    between atoms: _346  and  _347
REMARK  147  A    between atoms: _347  and  _348
REMARK  148  A    between atoms: _352  and  _354
REMARK  149  A    between atoms: _354  and  _355
REMARK  150  A    between atoms: _358  and  _360
REMARK  151  A    between atoms: _360  and  _361
REMARK  152  A    between atoms: _360  and  _363
REMARK  153  A    between atoms: _363  and  _364
REMARK  154  A    between atoms: _364  and  _365
REMARK  155  A    between atoms: _368  and  _370
REMARK  156  A    between atoms: _370  and  _371
REMARK  157  A    between atoms: _370  and  _373
REMARK  158  A    between atoms: _373  and  _374
REMARK  159  A    between atoms: _374  and  _375
REMARK  160  A    between atoms: _375  and  _376
REMARK  161  A    between atoms: _376  and  _377
REMARK  162  A    between atoms: _381  and  _383
REMARK  163  A    between atoms: _383  and  _384
REMARK  164  A    between atoms: _387  and  _389
REMARK  165  A    between atoms: _389  and  _390
REMARK  166  A    between atoms: _389  and  _392
REMARK  167  A    between atoms: _392  and  _393
REMARK  168  A    between atoms: _393  and  _394
REMARK  169  A    between atoms: _394  and  _395
REMARK  170  A    between atoms: _395  and  _396
REMARK  171  A    between atoms: _400  and  _402
REMARK  172  A    between atoms: _402  and  _403
REMARK  173  A    between atoms: _402  and  _405
REMARK  174  A    between atoms: _405  and  _406
REMARK  175  A    between atoms: _409  and  _411
REMARK  176  A    between atoms: _411  and  _412
REMARK  177  A    between atoms: _411  and  _414
REMARK  178  A    between atoms: _414  and  _415
REMARK  179  A    between atoms: _415  and  _416
REMARK  180  A    between atoms: _419  and  _421
REMARK  181  A    between atoms: _421  and  _422
REMARK  182  A    between atoms: _421  and  _424
REMARK  183  A    between atoms: _424  and  _425
REMARK  184  A    between atoms: _428  and  _430
REMARK  185  A    between atoms: _430  and  _431
REMARK  186  A    between atoms: _430  and  _433
REMARK  187  A    between atoms: _433  and  _434
REMARK  188  A    between atoms: _436  and  _438
REMARK  189  A    between atoms: _438  and  _439
REMARK  190  A    between atoms: _438  and  _441
REMARK  191  A    between atoms: _441  and  _442
REMARK  192  A    between atoms: _444  and  _446
REMARK  193  A    between atoms: _446  and  _447
REMARK  194  A    between atoms: _450  and  _452
REMARK  195  A    between atoms: _452  and  _453
REMARK  196  A    between atoms: _452  and  _455
REMARK  197  A    between atoms: _455  and  _456
REMARK  198  A    between atoms: _459  and  _461
REMARK  199  A    between atoms: _461  and  _462
REMARK  200  A    between atoms: _461  and  _464
REMARK  201  A    between atoms: _467  and  _469
REMARK  202  A    between atoms: _469  and  _470
REMARK  203  A    between atoms: _472  and  _474
REMARK  204  A    between atoms: _474  and  _475
REMARK  205  A    between atoms: _477  and  _479
REMARK  206  A    between atoms: _479  and  _480
REMARK  207  A    between atoms: _479  and  _482
REMARK  208  A    between atoms: _482  and  _483
REMARK  209  A    between atoms: _483  and  _484
REMARK  210  A    between atoms: _489  and  _491
REMARK  211  A    between atoms: _491  and  _492
REMARK  212  A    between atoms: _491  and  _494
REMARK  213  A    between atoms: _494  and  _495
REMARK  214  A    between atoms: _498  and  _500
REMARK  215  A    between atoms: _500  and  _501
REMARK  216  A    between atoms: _500  and  _503
REMARK  217  A    between atoms: _503  and  _504
REMARK  218  A    between atoms: _504  and  _505
REMARK  219  A    between atoms: _505  and  _506
REMARK  220  A    between atoms: _515  and  _517
REMARK  221  A    between atoms: _517  and  _518
REMARK  222  A    between atoms: _517  and  _520
REMARK  223  A    between atoms: _520  and  _521
REMARK  224  A    between atoms: _521  and  _522
REMARK  225  A    between atoms: _525  and  _526
REMARK  226  A    between atoms: _531  and  _533
REMARK  227  A    between atoms: _533  and  _534
REMARK  228  A    between atoms: _533  and  _536
REMARK  229  A    between atoms: _539  and  _541
REMARK  230  A    between atoms: _541  and  _542
REMARK  231  A    between atoms: _541  and  _544
REMARK  232  A    between atoms: _544  and  _545
REMARK  233  A    between atoms: _545  and  _546
REMARK  234  A    between atoms: _552  and  _553
REMARK  235  A    between atoms: _558  and  _560
REMARK  236  A    between atoms: _560  and  _561
REMARK  237  A    between atoms: _560  and  _563
REMARK  238  A    between atoms: _563  and  _564
REMARK  239  A    between atoms: _567  and  _569
REMARK  240  A    between atoms: _569  and  _570
REMARK  241  A    between atoms: _569  and  _572
REMARK  242  A    between atoms: _572  and  _573
REMARK  243  A    between atoms: _573  and  _574
REMARK  244  A    between atoms: _577  and  _579
REMARK  245  A    between atoms: _579  and  _580
REMARK  246  A    between atoms: _579  and  _582
REMARK  247  A    between atoms: _585  and  _587
REMARK  248  A    between atoms: _587  and  _588
REMARK  249  A    between atoms: _591  and  _593
REMARK  250  A    between atoms: _593  and  _594
REMARK  251  A    between atoms: _593  and  _596
REMARK  252  A    between atoms: _596  and  _597
REMARK  253  A    between atoms: _597  and  _598
REMARK  254  A    between atoms: _601  and  _603
REMARK  255  A    between atoms: _603  and  _604
REMARK  256  A    between atoms: _606  and  _608
REMARK  257  A    between atoms: _608  and  _609
REMARK  258  A    between atoms: _608  and  _611
REMARK  259  A    between atoms: _611  and  _612
REMARK                            x       y       z     vdW  Elec       q    Type
REMARK                         _______ _______ _______ _____ _____    ______ ____
ROOT
ATOM      1  O   HOH     1      11.711  74.318  30.944  0.00  0.00    +0.000 OA
ENDROOT
TORSDOF 0
REMARK  Name = ../refined-set-2016/4jne/4jne_pocket.pdb
REMARK  259 active torsions:
REMARK  status: ('A' for Active; 'I' for Inactive)
REMARK    1  A    between atoms: _1  and  _3
REMARK    2  A    between atoms: _3  and  _4
REMARK    3  A    between atoms: _3  and  _6
REMARK    4  A    between atoms: _6  and  _7
REMARK    5  A    between atoms: _10  and  _12
REMARK    6  A    between atoms: _12  and  _13
REMARK    7  A    between atoms: _12  and  _15
REMARK    8  A    between atoms: _15  and  _16
REMARK    9  A    between atoms: _19  and  _21
REMARK   10  A    between atoms: _21  and  _22
REMARK   11  A    between atoms: _24  and  _26
REMARK   12  A    between atoms: _26  and  _27
REMARK   13  A    between atoms: _26  and  _29
REMARK   14  A    between atoms: _29  and  _30
REMARK   15  A    between atoms: _33  and  _35
REMARK   16  A    between atoms: _35  and  _36
REMARK   17  A    between atoms: _35  and  _38
REMARK   18  A    between atoms: _38  and  _39
REMARK   19  A    between atoms: _42  and  _44
REMARK   20  A    between atoms: _44  and  _45
REMARK   21  A    between atoms: _44  and  _47
REMARK   22  A    between atoms: _47  and  _48
REMARK   23  A    between atoms: _53  and  _55
REMARK   24  A    between atoms: _55  and  _56
REMARK   25  A    between atoms: _55  and  _58
REMARK   26  A    between atoms: _58  and  _59
REMARK   27  A    between atoms: _61  and  _63
REMARK   28  A    between atoms: _63  and  _64
REMARK   29  A    between atoms: _63  and  _66
REMARK   30  A    between atoms: _68  and  _70
REMARK   31  A    between atoms: _70  and  _71
REMARK   32  A    between atoms: _70  and  _73
REMARK   33  A    between atoms: _73  and  _74
REMARK   34  A    between atoms: _77  and  _79
REMARK   35  A    between atoms: _79  and  _80
REMARK   36  A    between atoms: _79  and  _82
REMARK   37  A    between atoms: _82  and  _83
REMARK   38  A    between atoms: _87  and  _88
REMARK   39  A    between atoms: _93  and  _95
REMARK   40  A    between atoms: _95  and  _96
REMARK   41  A    between atoms: _95  and  _98
REMARK   42  A    between atoms: _98  and  _99
REMARK   43  A    between atoms: _101  and  _103
REMARK   44  A    between atoms: _103  and  _104
REMARK   45  A    between atoms: _103  and  _106
REMARK   46  A    between atoms: _106  and  _107
REMARK   47  A    between atoms: _107  and  _108
REMARK   48  A    between atoms: _108  and  _109
REMARK   49  A    between atoms: _109  and  _110
REMARK   50  A    between atoms: _114  and  _116
REMARK   51  A    between atoms: _116  and  _117
REMARK   52  A    between atoms: _120  and  _122
REMARK   53  A    between atoms: _122  and  _123
REMARK   54  A    between atoms: _122  and  _125
REMARK   55  A    between atoms: _125  and  _126
REMARK   56  A    between atoms: _126  and  _127
REMARK   57  A    between atoms: _127  and  _128
REMARK   58  A    between atoms: _128  and  _129
REMARK   59  A    between atoms: _133  and  _135
REMARK   60  A    between atoms: _135  and  _136
REMARK   61  A    between atoms: _135  and  _138
REMARK   62  A    between atoms: _138  and  _139
REMARK   63  A    between atoms: _139  and  _140
REMARK   64  A    between atoms: _140  and  _141
REMARK   65  A    between atoms: _150  and  _152
REMARK   66  A    between atoms: _152  and  _153
REMARK   67  A    between atoms: _152  and  _155
REMARK   68  A    between atoms: _155  and  _156
REMARK   69  A    between atoms: _159  and  _161
REMARK   70  A    between atoms: _161  and  _162
REMARK   71  A    between atoms: _161  and  _164
REMARK   72  A    between atoms: _168  and  _169
REMARK   73  A    between atoms: _174  and  _176
REMARK   74  A    between atoms: _176  and  _177
REMARK   75  A    between atoms: _180  and  _182
REMARK   76  A    between atoms: _182  and  _183
REMARK   77  A    between atoms: _182  and  _185
REMARK   78  A    between atoms: _185  and  _186
REMARK   79  A    between atoms: _192  and  _194
REMARK   80  A    between atoms: _194  and  _195
REMARK   81  A    between atoms: _194  and  _197
REMARK   82  A    between atoms: _197  and  _198
REMARK   83  A    between atoms: _198  and  _199
REMARK   84  A    between atoms: _202  and  _204
REMARK   85  A    between atoms: _204  and  _205
REMARK   86  A    between atoms: _204  and  _207
REMARK   87  A    between atoms: _207  and  _208
REMARK   88  A    between atoms: _211  and  _213
REMARK   89  A    between atoms: _213  and  _214
REMARK   90  A    between atoms: _213  and  _216
REMARK   91  A    between atoms: _216  and  _217
REMARK   92  A    between atoms: _220  and  _222
REMARK   93  A    between atoms: _222  and  _223
REMARK   94  A    between atoms: _225  and  _227
REMARK   95  A    between atoms: _227  and  _228
REMARK   96  A    between atoms: _230  and  _232
REMARK   97  A    between atoms: _232  and  _233
REMARK   98  A    between atoms: _235  and  _237
REMARK   99  A    between atoms: _237  and  _238
REMARK  100  A    between atoms: _241  and  _243
REMARK  101  A    between atoms: _243  and  _244
REMARK  102  A    between atoms: _243  and  _246
REMARK  103  A    between atoms: _246  and  _247
REMARK  104  A    between atoms: _253  and  _255
REMARK  105  A    between atoms: _255  and  _256
REMARK  106  A    between atoms: _255  and  _258
REMARK  107  A    between atoms: _258  and  _259
REMARK  108  A    between atoms: _262  and  _264
REMARK  109  A    between atoms: _264  and  _265
REMARK  110  A    between atoms: _264  and  _267
REMARK  111  A    between atoms: _267  and  _268
REMARK  112  A    between atoms: _271  and  _273
REMARK  113  A    between atoms: _273  and  _274
REMARK  114  A    between atoms: _273  and  _276
REMARK  115  A    between atoms: _276  and  _277
REMARK  116  A    between atoms: _280  and  _282
REMARK  117  A    between atoms: _282  and  _283
REMARK  118  A    between atoms: _282  and  _285
REMARK  119  A    between atoms: _285  and  _286
REMARK  120  A    between atoms: _289  and  _291
REMARK  121  A    between atoms: _291  and  _292
REMARK  122  A    between atoms: _294  and  _296
REMARK  123  A    between atoms: _296  and  _297
REMARK  124  A    between atoms: _299  and  _301
REMARK  125  A    between atoms: _301  and  _302
REMARK  126  A    between atoms: _301  and  _304
REMARK  127  A    between atoms: _304  and  _305
REMARK  128  A    between atoms: _305  and  _306
REMARK  129  A    between atoms: _309  and  _311
REMARK  130  A    between atoms: _311  and  _312
REMARK  131  A    between atoms: _311  and  _314
REMARK  132  A    between atoms: _314  and  _315
REMARK  133  A    between atoms: _318  and  _320
REMARK  134  A    between atoms: _320  and  _321
REMARK  135  A    between atoms: _320  and  _323
REMARK  136  A    between atoms: _323  and  _324
REMARK  137  A    between atoms: _330  and  _332
REMARK  138  A    between atoms: _332  and  _333
REMARK  139  A    between atoms: _332  and  _335
REMARK  140  A    between atoms: _335  and  _336
REMARK  141  A    between atoms: _339  and  _341
REMARK  142  A    between atoms: _341  and  _342
REMARK  143  A    between atoms: _341  and  _344
REMARK  144  A    between atoms: _344  and  _345
REMARK  145  A    between atoms: _345  and  _346
REMARK  146  A    between atoms: _346  and  _347
REMARK  147  A    between atoms: _347  and  _348
REMARK  148  A    between atoms: _352  and  _354
REMARK  149  A    between atoms: _354  and  _355
REMARK  150  A    between atoms: _358  and  _360
REMARK  151  A    between atoms: _360  and  _361
REMARK  152  A    between atoms: _360  and  _363
REMARK  153  A    between atoms: _363  and  _364
REMARK  154  A    between atoms: _364  and  _365
REMARK  155  A    between atoms: _368  and  _370
REMARK  156  A    between atoms: _370  and  _371
REMARK  157  A    between atoms: _370  and  _373
REMARK  158  A    between atoms: _373  and  _374
REMARK  159  A    between atoms: _374  and  _375
REMARK  160  A    between atoms: _375  and  _376
REMARK  161  A    between atoms: _376  and  _377
REMARK  162  A    between atoms: _381  and  _383
REMARK  163  A    between atoms: _383  and  _384
REMARK  164  A    between atoms: _387  and  _389
REMARK  165  A    between atoms: _389  and  _390
REMARK  166  A    between atoms: _389  and  _392
REMARK  167  A    between atoms: _392  and  _393
REMARK  168  A    between atoms: _393  and  _394
REMARK  169  A    between atoms: _394  and  _395
REMARK  170  A    between atoms: _395  and  _396
REMARK  171  A    between atoms: _400  and  _402
REMARK  172  A    between atoms: _402  and  _403
REMARK  173  A    between atoms: _402  and  _405
REMARK  174  A    between atoms: _405  and  _406
REMARK  175  A    between atoms: _409  and  _411
REMARK  176  A    between atoms: _411  and  _412
REMARK  177  A    between atoms: _411  and  _414
REMARK  178  A    between atoms: _414  and  _415
REMARK  179  A    between atoms: _415  and  _416
REMARK  180  A    between atoms: _419  and  _421
REMARK  181  A    between atoms: _421  and  _422
REMARK  182  A    between atoms: _421  and  _424
REMARK  183  A    between atoms: _424  and  _425
REMARK  184  A    between atoms: _428  and  _430
REMARK  185  A    between atoms: _430  and  _431
REMARK  186  A    between atoms: _430  and  _433
REMARK  187  A    between atoms: _433  and  _434
REMARK  188  A    between atoms: _436  and  _438
REMARK  189  A    between atoms: _438  and  _439
REMARK  190  A    between atoms: _438  and  _441
REMARK  191  A    between atoms: _441  and  _442
REMARK  192  A    between atoms: _444  and  _446
REMARK  193  A    between atoms: _446  and  _447
REMARK  194  A    between atoms: _450  and  _452
REMARK  195  A    between atoms: _452  and  _453
REMARK  196  A    between atoms: _452  and  _455
REMARK  197  A    between atoms: _455  and  _456
REMARK  198  A    between atoms: _459  and  _461
REMARK  199  A    between atoms: _461  and  _462
REMARK  200  A    between atoms: _461  and  _464
REMARK  201  A    between atoms: _467  and  _469
REMARK  202  A    between atoms: _469  and  _470
REMARK  203  A    between atoms: _472  and  _474
REMARK  204  A    between atoms: _474  and  _475
REMARK  205  A    between atoms: _477  and  _479
REMARK  206  A    between atoms: _479  and  _480
REMARK  207  A    between atoms: _479  and  _482
REMARK  208  A    between atoms: _482  and  _483
REMARK  209  A    between atoms: _483  and  _484
REMARK  210  A    between atoms: _489  and  _491
REMARK  211  A    between atoms: _491  and  _492
REMARK  212  A    between atoms: _491  and  _494
REMARK  213  A    between atoms: _494  and  _495
REMARK  214  A    between atoms: _498  and  _500
REMARK  215  A    between atoms: _500  and  _501
REMARK  216  A    between atoms: _500  and  _503
REMARK  217  A    between atoms: _503  and  _504
REMARK  218  A    between atoms: _504  and  _505
REMARK  219  A    between atoms: _505  and  _506
REMARK  220  A    between atoms: _515  and  _517
REMARK  221  A    between atoms: _517  and  _518
REMARK  222  A    between atoms: _517  and  _520
REMARK  223  A    between atoms: _520  and  _521
REMARK  224  A    between atoms: _521  and  _522
REMARK  225  A    between atoms: _525  and  _526
REMARK  226  A    between atoms: _531  and  _533
REMARK  227  A    between atoms: _533  and  _534
REMARK  228  A    between atoms: _533  and  _536
REMARK  229  A    between atoms: _539  and  _541
REMARK  230  A    between atoms: _541  and  _542
REMARK  231  A    between atoms: _541  and  _544
REMARK  232  A    between atoms: _544  and  _545
REMARK  233  A    between atoms: _545  and  _546
REMARK  234  A    between atoms: _552  and  _553
REMARK  235  A    between atoms: _558  and  _560
REMARK  236  A    between atoms: _560  and  _561
REMARK  237  A    between atoms: _560  and  _563
REMARK  238  A    between atoms: _563  and  _564
REMARK  239  A    between atoms: _567  and  _569
REMARK  240  A    between atoms: _569  and  _570
REMARK  241  A    between atoms: _569  and  _572
REMARK  242  A    between atoms: _572  and  _573
REMARK  243  A    between atoms: _573  and  _574
REMARK  244  A    between atoms: _577  and  _579
REMARK  245  A    between atoms: _579  and  _580
REMARK  246  A    between atoms: _579  and  _582
REMARK  247  A    between atoms: _585  and  _587
REMARK  248  A    between atoms: _587  and  _588
REMARK  249  A    between atoms: _591  and  _593
REMARK  250  A    between atoms: _593  and  _594
REMARK  251  A    between atoms: _593  and  _596
REMARK  252  A    between atoms: _596  and  _597
REMARK  253  A    between atoms: _597  and  _598
REMARK  254  A    between atoms: _601  and  _603
REMARK  255  A    between atoms: _603  and  _604
REMARK  256  A    between atoms: _606  and  _608
REMARK  257  A    between atoms: _608  and  _609
REMARK  258  A    between atoms: _608  and  _611
REMARK  259  A    between atoms: _611  and  _612
REMARK                            x       y       z     vdW  Elec       q    Type
REMARK                         _______ _______ _______ _____ _____    ______ ____
ROOT
ATOM      1  O   HOH     1      20.610  72.737  27.156  0.00  0.00    +0.000 OA
ENDROOT
TORSDOF 0
REMARK  Name = ../refined-set-2016/4jne/4jne_pocket.pdb
REMARK  259 active torsions:
REMARK  status: ('A' for Active; 'I' for Inactive)
REMARK    1  A    between atoms: _1  and  _3
REMARK    2  A    between atoms: _3  and  _4
REMARK    3  A    between atoms: _3  and  _6
REMARK    4  A    between atoms: _6  and  _7
REMARK    5  A    between atoms: _10  and  _12
REMARK    6  A    between atoms: _12  and  _13
REMARK    7  A    between atoms: _12  and  _15
REMARK    8  A    between atoms: _15  and  _16
REMARK    9  A    between atoms: _19  and  _21
REMARK   10  A    between atoms: _21  and  _22
REMARK   11  A    between atoms: _24  and  _26
REMARK   12  A    between atoms: _26  and  _27
REMARK   13  A    between atoms: _26  and  _29
REMARK   14  A    between atoms: _29  and  _30
REMARK   15  A    between atoms: _33  and  _35
REMARK   16  A    between atoms: _35  and  _36
REMARK   17  A    between atoms: _35  and  _38
REMARK   18  A    between atoms: _38  and  _39
REMARK   19  A    between atoms: _42  and  _44
REMARK   20  A    between atoms: _44  and  _45
REMARK   21  A    between atoms: _44  and  _47
REMARK   22  A    between atoms: _47  and  _48
REMARK   23  A    between atoms: _53  and  _55
REMARK   24  A    between atoms: _55  and  _56
REMARK   25  A    between atoms: _55  and  _58
REMARK   26  A    between atoms: _58  and  _59
REMARK   27  A    between atoms: _61  and  _63
REMARK   28  A    between atoms: _63  and  _64
REMARK   29  A    between atoms: _63  and  _66
REMARK   30  A    between atoms: _68  and  _70
REMARK   31  A    between atoms: _70  and  _71
REMARK   32  A    between atoms: _70  and  _73
REMARK   33  A    between atoms: _73  and  _74
REMARK   34  A    between atoms: _77  and  _79
REMARK   35  A    between atoms: _79  and  _80
REMARK   36  A    between atoms: _79  and  _82
REMARK   37  A    between atoms: _82  and  _83
REMARK   38  A    between atoms: _87  and  _88
REMARK   39  A    between atoms: _93  and  _95
REMARK   40  A    between atoms: _95  and  _96
REMARK   41  A    between atoms: _95  and  _98
REMARK   42  A    between atoms: _98  and  _99
REMARK   43  A    between atoms: _101  and  _103
REMARK   44  A    between atoms: _103  and  _104
REMARK   45  A    between atoms: _103  and  _106
REMARK   46  A    between atoms: _106  and  _107
REMARK   47  A    between atoms: _107  and  _108
REMARK   48  A    between atoms: _108  and  _109
REMARK   49  A    between atoms: _109  and  _110
REMARK   50  A    between atoms: _114  and  _116
REMARK   51  A    between atoms: _116  and  _117
REMARK   52  A    between atoms: _120  and  _122
REMARK   53  A    between atoms: _122  and  _123
REMARK   54  A    between atoms: _122  and  _125
REMARK   55  A    between atoms: _125  and  _126
REMARK   56  A    between atoms: _126  and  _127
REMARK   57  A    between atoms: _127  and  _128
REMARK   58  A    between atoms: _128  and  _129
REMARK   59  A    between atoms: _133  and  _135
REMARK   60  A    between atoms: _135  and  _136
REMARK   61  A    between atoms: _135  and  _138
REMARK   62  A    between atoms: _138  and  _139
REMARK   63  A    between atoms: _139  and  _140
REMARK   64  A    between atoms: _140  and  _141
REMARK   65  A    between atoms: _150  and  _152
REMARK   66  A    between atoms: _152  and  _153
REMARK   67  A    between atoms: _152  and  _155
REMARK   68  A    between atoms: _155  and  _156
REMARK   69  A    between atoms: _159  and  _161
REMARK   70  A    between atoms: _161  and  _162
REMARK   71  A    between atoms: _161  and  _164
REMARK   72  A    between atoms: _168  and  _169
REMARK   73  A    between atoms: _174  and  _176
REMARK   74  A    between atoms: _176  and  _177
REMARK   75  A    between atoms: _180  and  _182
REMARK   76  A    between atoms: _182  and  _183
REMARK   77  A    between atoms: _182  and  _185
REMARK   78  A    between atoms: _185  and  _186
REMARK   79  A    between atoms: _192  and  _194
REMARK   80  A    between atoms: _194  and  _195
REMARK   81  A    between atoms: _194  and  _197
REMARK   82  A    between atoms: _197  and  _198
REMARK   83  A    between atoms: _198  and  _199
REMARK   84  A    between atoms: _202  and  _204
REMARK   85  A    between atoms: _204  and  _205
REMARK   86  A    between atoms: _204  and  _207
REMARK   87  A    between atoms: _207  and  _208
REMARK   88  A    between atoms: _211  and  _213
REMARK   89  A    between atoms: _213  and  _214
REMARK   90  A    between atoms: _213  and  _216
REMARK   91  A    between atoms: _216  and  _217
REMARK   92  A    between atoms: _220  and  _222
REMARK   93  A    between atoms: _222  and  _223
REMARK   94  A    between atoms: _225  and  _227
REMARK   95  A    between atoms: _227  and  _228
REMARK   96  A    between atoms: _230  and  _232
REMARK   97  A    between atoms: _232  and  _233
REMARK   98  A    between atoms: _235  and  _237
REMARK   99  A    between atoms: _237  and  _238
REMARK  100  A    between atoms: _241  and  _243
REMARK  101  A    between atoms: _243  and  _244
REMARK  102  A    between atoms: _243  and  _246
REMARK  103  A    between atoms: _246  and  _247
REMARK  104  A    between atoms: _253  and  _255
REMARK  105  A    between atoms: _255  and  _256
REMARK  106  A    between atoms: _255  and  _258
REMARK  107  A    between atoms: _258  and  _259
REMARK  108  A    between atoms: _262  and  _264
REMARK  109  A    between atoms: _264  and  _265
REMARK  110  A    between atoms: _264  and  _267
REMARK  111  A    between atoms: _267  and  _268
REMARK  112  A    between atoms: _271  and  _273
REMARK  113  A    between atoms: _273  and  _274
REMARK  114  A    between atoms: _273  and  _276
REMARK  115  A    between atoms: _276  and  _277
REMARK  116  A    between atoms: _280  and  _282
REMARK  117  A    between atoms: _282  and  _283
REMARK  118  A    between atoms: _282  and  _285
REMARK  119  A    between atoms: _285  and  _286
REMARK  120  A    between atoms: _289  and  _291
REMARK  121  A    between atoms: _291  and  _292
REMARK  122  A    between atoms: _294  and  _296
REMARK  123  A    between atoms: _296  and  _297
REMARK  124  A    between atoms: _299  and  _301
REMARK  125  A    between atoms: _301  and  _302
REMARK  126  A    between atoms: _301  and  _304
REMARK  127  A    between atoms: _304  and  _305
REMARK  128  A    between atoms: _305  and  _306
REMARK  129  A    between atoms: _309  and  _311
REMARK  130  A    between atoms: _311  and  _312
REMARK  131  A    between atoms: _311  and  _314
REMARK  132  A    between atoms: _314  and  _315
REMARK  133  A    between atoms: _318  and  _320
REMARK  134  A    between atoms: _320  and  _321
REMARK  135  A    between atoms: _320  and  _323
REMARK  136  A    between atoms: _323  and  _324
REMARK  137  A    between atoms: _330  and  _332
REMARK  138  A    between atoms: _332  and  _333
REMARK  139  A    between atoms: _332  and  _335
REMARK  140  A    between atoms: _335  and  _336
REMARK  141  A    between atoms: _339  and  _341
REMARK  142  A    between atoms: _341  and  _342
REMARK  143  A    between atoms: _341  and  _344
REMARK  144  A    between atoms: _344  and  _345
REMARK  145  A    between atoms: _345  and  _346
REMARK  146  A    between atoms: _346  and  _347
REMARK  147  A    between atoms: _347  and  _348
REMARK  148  A    between atoms: _352  and  _354
REMARK  149  A    between atoms: _354  and  _355
REMARK  150  A    between atoms: _358  and  _360
REMARK  151  A    between atoms: _360  and  _361
REMARK  152  A    between atoms: _360  and  _363
REMARK  153  A    between atoms: _363  and  _364
REMARK  154  A    between atoms: _364  and  _365
REMARK  155  A    between atoms: _368  and  _370
REMARK  156  A    between atoms: _370  and  _371
REMARK  157  A    between atoms: _370  and  _373
REMARK  158  A    between atoms: _373  and  _374
REMARK  159  A    between atoms: _374  and  _375
REMARK  160  A    between atoms: _375  and  _376
REMARK  161  A    between atoms: _376  and  _377
REMARK  162  A    between atoms: _381  and  _383
REMARK  163  A    between atoms: _383  and  _384
REMARK  164  A    between atoms: _387  and  _389
REMARK  165  A    between atoms: _389  and  _390
REMARK  166  A    between atoms: _389  and  _392
REMARK  167  A    between atoms: _392  and  _393
REMARK  168  A    between atoms: _393  and  _394
REMARK  169  A    between atoms: _394  and  _395
REMARK  170  A    between atoms: _395  and  _396
REMARK  171  A    between atoms: _400  and  _402
REMARK  172  A    between atoms: _402  and  _403
REMARK  173  A    between atoms: _402  and  _405
REMARK  174  A    between atoms: _405  and  _406
REMARK  175  A    between atoms: _409  and  _411
REMARK  176  A    between atoms: _411  and  _412
REMARK  177  A    between atoms: _411  and  _414
REMARK  178  A    between atoms: _414  and  _415
REMARK  179  A    between atoms: _415  and  _416
REMARK  180  A    between atoms: _419  and  _421
REMARK  181  A    between atoms: _421  and  _422
REMARK  182  A    between atoms: _421  and  _424
REMARK  183  A    between atoms: _424  and  _425
REMARK  184  A    between atoms: _428  and  _430
REMARK  185  A    between atoms: _430  and  _431
REMARK  186  A    between atoms: _430  and  _433
REMARK  187  A    between atoms: _433  and  _434
REMARK  188  A    between atoms: _436  and  _438
REMARK  189  A    between atoms: _438  and  _439
REMARK  190  A    between atoms: _438  and  _441
REMARK  191  A    between atoms: _441  and  _442
REMARK  192  A    between atoms: _444  and  _446
REMARK  193  A    between atoms: _446  and  _447
REMARK  194  A    between atoms: _450  and  _452
REMARK  195  A    between atoms: _452  and  _453
REMARK  196  A    between atoms: _452  and  _455
REMARK  197  A    between atoms: _455  and  _456
REMARK  198  A    between atoms: _459  and  _461
REMARK  199  A    between atoms: _461  and  _462
REMARK  200  A    between atoms: _461  and  _464
REMARK  201  A    between atoms: _467  and  _469
REMARK  202  A    between atoms: _469  and  _470
REMARK  203  A    between atoms: _472  and  _474
REMARK  204  A    between atoms: _474  and  _475
REMARK  205  A    between atoms: _477  and  _479
REMARK  206  A    between atoms: _479  and  _480
REMARK  207  A    between atoms: _479  and  _482
REMARK  208  A    between atoms: _482  and  _483
REMARK  209  A    between atoms: _483  and  _484
REMARK  210  A    between atoms: _489  and  _491
REMARK  211  A    between atoms: _491  and  _492
REMARK  212  A    between atoms: _491  and  _494
REMARK  213  A    between atoms: _494  and  _495
REMARK  214  A    between atoms: _498  and  _500
REMARK  215  A    between atoms: _500  and  _501
REMARK  216  A    between atoms: _500  and  _503
REMARK  217  A    between atoms: _503  and  _504
REMARK  218  A    between atoms: _504  and  _505
REMARK  219  A    between atoms: _505  and  _506
REMARK  220  A    between atoms: _515  and  _517
REMARK  221  A    between atoms: _517  and  _518
REMARK  222  A    between atoms: _517  and  _520
REMARK  223  A    between atoms: _520  and  _521
REMARK  224  A    between atoms: _521  and  _522
REMARK  225  A    between atoms: _525  and  _526
REMARK  226  A    between atoms: _531  and  _533
REMARK  227  A    between atoms: _533  and  _534
REMARK  228  A    between atoms: _533  and  _536
REMARK  229  A    between atoms: _539  and  _541
REMARK  230  A    between atoms: _541  and  _542
REMARK  231  A    between atoms: _541  and  _544
REMARK  232  A    between atoms: _544  and  _545
REMARK  233  A    between atoms: _545  and  _546
REMARK  234  A    between atoms: _552  and  _553
REMARK  235  A    between atoms: _558  and  _560
REMARK  236  A    between atoms: _560  and  _561
REMARK  237  A    between atoms: _560  and  _563
REMARK  238  A    between atoms: _563  and  _564
REMARK  239  A    between atoms: _567  and  _569
REMARK  240  A    between atoms: _569  and  _570
REMARK  241  A    between atoms: _569  and  _572
REMARK  242  A    between atoms: _572  and  _573
REMARK  243  A    between atoms: _573  and  _574
REMARK  244  A    between atoms: _577  and  _579
REMARK  245  A    between atoms: _579  and  _580
REMARK  246  A    between atoms: _579  and  _582
REMARK  247  A    between atoms: _585  and  _587
REMARK  248  A    between atoms: _587  and  _588
REMARK  249  A    between atoms: _591  and  _593
REMARK  250  A    between atoms: _593  and  _594
REMARK  251  A    between atoms: _593  and  _596
REMARK  252  A    between atoms: _596  and  _597
REMARK  253  A    between atoms: _597  and  _598
REMARK  254  A    between atoms: _601  and  _603
REMARK  255  A    between atoms: _603  and  _604
REMARK  256  A    between atoms: _606  and  _608
REMARK  257  A    between atoms: _608  and  _609
REMARK  258  A    between atoms: _608  and  _611
REMARK  259  A    between atoms: _611  and  _612
REMARK                            x       y       z     vdW  Elec       q    Type
REMARK                         _______ _______ _______ _____ _____    ______ ____
ROOT
ATOM      1  O   HOH     1      12.735  79.153  20.877  0.00  0.00    +0.000 OA
ENDROOT
TORSDOF 0
REMARK  Name = ../refined-set-2016/4jne/4jne_pocket.pdb
REMARK  259 active torsions:
REMARK  status: ('A' for Active; 'I' for Inactive)
REMARK    1  A    between atoms: _1  and  _3
REMARK    2  A    between atoms: _3  and  _4
REMARK    3  A    between atoms: _3  and  _6
REMARK    4  A    between atoms: _6  and  _7
REMARK    5  A    between atoms: _10  and  _12
REMARK    6  A    between atoms: _12  and  _13
REMARK    7  A    between atoms: _12  and  _15
REMARK    8  A    between atoms: _15  and  _16
REMARK    9  A    between atoms: _19  and  _21
REMARK   10  A    between atoms: _21  and  _22
REMARK   11  A    between atoms: _24  and  _26
REMARK   12  A    between atoms: _26  and  _27
REMARK   13  A    between atoms: _26  and  _29
REMARK   14  A    between atoms: _29  and  _30
REMARK   15  A    between atoms: _33  and  _35
REMARK   16  A    between atoms: _35  and  _36
REMARK   17  A    between atoms: _35  and  _38
REMARK   18  A    between atoms: _38  and  _39
REMARK   19  A    between atoms: _42  and  _44
REMARK   20  A    between atoms: _44  and  _45
REMARK   21  A    between atoms: _44  and  _47
REMARK   22  A    between atoms: _47  and  _48
REMARK   23  A    between atoms: _53  and  _55
REMARK   24  A    between atoms: _55  and  _56
REMARK   25  A    between atoms: _55  and  _58
REMARK   26  A    between atoms: _58  and  _59
REMARK   27  A    between atoms: _61  and  _63
REMARK   28  A    between atoms: _63  and  _64
REMARK   29  A    between atoms: _63  and  _66
REMARK   30  A    between atoms: _68  and  _70
REMARK   31  A    between atoms: _70  and  _71
REMARK   32  A    between atoms: _70  and  _73
REMARK   33  A    between atoms: _73  and  _74
REMARK   34  A    between atoms: _77  and  _79
REMARK   35  A    between atoms: _79  and  _80
REMARK   36  A    between atoms: _79  and  _82
REMARK   37  A    between atoms: _82  and  _83
REMARK   38  A    between atoms: _87  and  _88
REMARK   39  A    between atoms: _93  and  _95
REMARK   40  A    between atoms: _95  and  _96
REMARK   41  A    between atoms: _95  and  _98
REMARK   42  A    between atoms: _98  and  _99
REMARK   43  A    between atoms: _101  and  _103
REMARK   44  A    between atoms: _103  and  _104
REMARK   45  A    between atoms: _103  and  _106
REMARK   46  A    between atoms: _106  and  _107
REMARK   47  A    between atoms: _107  and  _108
REMARK   48  A    between atoms: _108  and  _109
REMARK   49  A    between atoms: _109  and  _110
REMARK   50  A    between atoms: _114  and  _116
REMARK   51  A    between atoms: _116  and  _117
REMARK   52  A    between atoms: _120  and  _122
REMARK   53  A    between atoms: _122  and  _123
REMARK   54  A    between atoms: _122  and  _125
REMARK   55  A    between atoms: _125  and  _126
REMARK   56  A    between atoms: _126  and  _127
REMARK   57  A    between atoms: _127  and  _128
REMARK   58  A    between atoms: _128  and  _129
REMARK   59  A    between atoms: _133  and  _135
REMARK   60  A    between atoms: _135  and  _136
REMARK   61  A    between atoms: _135  and  _138
REMARK   62  A    between atoms: _138  and  _139
REMARK   63  A    between atoms: _139  and  _140
REMARK   64  A    between atoms: _140  and  _141
REMARK   65  A    between atoms: _150  and  _152
REMARK   66  A    between atoms: _152  and  _153
REMARK   67  A    between atoms: _152  and  _155
REMARK   68  A    between atoms: _155  and  _156
REMARK   69  A    between atoms: _159  and  _161
REMARK   70  A    between atoms: _161  and  _162
REMARK   71  A    between atoms: _161  and  _164
REMARK   72  A    between atoms: _168  and  _169
REMARK   73  A    between atoms: _174  and  _176
REMARK   74  A    between atoms: _176  and  _177
REMARK   75  A    between atoms: _180  and  _182
REMARK   76  A    between atoms: _182  and  _183
REMARK   77  A    between atoms: _182  and  _185
REMARK   78  A    between atoms: _185  and  _186
REMARK   79  A    between atoms: _192  and  _194
REMARK   80  A    between atoms: _194  and  _195
REMARK   81  A    between atoms: _194  and  _197
REMARK   82  A    between atoms: _197  and  _198
REMARK   83  A    between atoms: _198  and  _199
REMARK   84  A    between atoms: _202  and  _204
REMARK   85  A    between atoms: _204  and  _205
REMARK   86  A    between atoms: _204  and  _207
REMARK   87  A    between atoms: _207  and  _208
REMARK   88  A    between atoms: _211  and  _213
REMARK   89  A    between atoms: _213  and  _214
REMARK   90  A    between atoms: _213  and  _216
REMARK   91  A    between atoms: _216  and  _217
REMARK   92  A    between atoms: _220  and  _222
REMARK   93  A    between atoms: _222  and  _223
REMARK   94  A    between atoms: _225  and  _227
REMARK   95  A    between atoms: _227  and  _228
REMARK   96  A    between atoms: _230  and  _232
REMARK   97  A    between atoms: _232  and  _233
REMARK   98  A    between atoms: _235  and  _237
REMARK   99  A    between atoms: _237  and  _238
REMARK  100  A    between atoms: _241  and  _243
REMARK  101  A    between atoms: _243  and  _244
REMARK  102  A    between atoms: _243  and  _246
REMARK  103  A    between atoms: _246  and  _247
REMARK  104  A    between atoms: _253  and  _255
REMARK  105  A    between atoms: _255  and  _256
REMARK  106  A    between atoms: _255  and  _258
REMARK  107  A    between atoms: _258  and  _259
REMARK  108  A    between atoms: _262  and  _264
REMARK  109  A    between atoms: _264  and  _265
REMARK  110  A    between atoms: _264  and  _267
REMARK  111  A    between atoms: _267  and  _268
REMARK  112  A    between atoms: _271  and  _273
REMARK  113  A    between atoms: _273  and  _274
REMARK  114  A    between atoms: _273  and  _276
REMARK  115  A    between atoms: _276  and  _277
REMARK  116  A    between atoms: _280  and  _282
REMARK  117  A    between atoms: _282  and  _283
REMARK  118  A    between atoms: _282  and  _285
REMARK  119  A    between atoms: _285  and  _286
REMARK  120  A    between atoms: _289  and  _291
REMARK  121  A    between atoms: _291  and  _292
REMARK  122  A    between atoms: _294  and  _296
REMARK  123  A    between atoms: _296  and  _297
REMARK  124  A    between atoms: _299  and  _301
REMARK  125  A    between atoms: _301  and  _302
REMARK  126  A    between atoms: _301  and  _304
REMARK  127  A    between atoms: _304  and  _305
REMARK  128  A    between atoms: _305  and  _306
REMARK  129  A    between atoms: _309  and  _311
REMARK  130  A    between atoms: _311  and  _312
REMARK  131  A    between atoms: _311  and  _314
REMARK  132  A    between atoms: _314  and  _315
REMARK  133  A    between atoms: _318  and  _320
REMARK  134  A    between atoms: _320  and  _321
REMARK  135  A    between atoms: _320  and  _323
REMARK  136  A    between atoms: _323  and  _324
REMARK  137  A    between atoms: _330  and  _332
REMARK  138  A    between atoms: _332  and  _333
REMARK  139  A    between atoms: _332  and  _335
REMARK  140  A    between atoms: _335  and  _336
REMARK  141  A    between atoms: _339  and  _341
REMARK  142  A    between atoms: _341  and  _342
REMARK  143  A    between atoms: _341  and  _344
REMARK  144  A    between atoms: _344  and  _345
REMARK  145  A    between atoms: _345  and  _346
REMARK  146  A    between atoms: _346  and  _347
REMARK  147  A    between atoms: _347  and  _348
REMARK  148  A    between atoms: _352  and  _354
REMARK  149  A    between atoms: _354  and  _355
REMARK  150  A    between atoms: _358  and  _360
REMARK  151  A    between atoms: _360  and  _361
REMARK  152  A    between atoms: _360  and  _363
REMARK  153  A    between atoms: _363  and  _364
REMARK  154  A    between atoms: _364  and  _365
REMARK  155  A    between atoms: _368  and  _370
REMARK  156  A    between atoms: _370  and  _371
REMARK  157  A    between atoms: _370  and  _373
REMARK  158  A    between atoms: _373  and  _374
REMARK  159  A    between atoms: _374  and  _375
REMARK  160  A    between atoms: _375  and  _376
REMARK  161  A    between atoms: _376  and  _377
REMARK  162  A    between atoms: _381  and  _383
REMARK  163  A    between atoms: _383  and  _384
REMARK  164  A    between atoms: _387  and  _389
REMARK  165  A    between atoms: _389  and  _390
REMARK  166  A    between atoms: _389  and  _392
REMARK  167  A    between atoms: _392  and  _393
REMARK  168  A    between atoms: _393  and  _394
REMARK  169  A    between atoms: _394  and  _395
REMARK  170  A    between atoms: _395  and  _396
REMARK  171  A    between atoms: _400  and  _402
REMARK  172  A    between atoms: _402  and  _403
REMARK  173  A    between atoms: _402  and  _405
REMARK  174  A    between atoms: _405  and  _406
REMARK  175  A    between atoms: _409  and  _411
REMARK  176  A    between atoms: _411  and  _412
REMARK  177  A    between atoms: _411  and  _414
REMARK  178  A    between atoms: _414  and  _415
REMARK  179  A    between atoms: _415  and  _416
REMARK  180  A    between atoms: _419  and  _421
REMARK  181  A    between atoms: _421  and  _422
REMARK  182  A    between atoms: _421  and  _424
REMARK  183  A    between atoms: _424  and  _425
REMARK  184  A    between atoms: _428  and  _430
REMARK  185  A    between atoms: _430  and  _431
REMARK  186  A    between atoms: _430  and  _433
REMARK  187  A    between atoms: _433  and  _434
REMARK  188  A    between atoms: _436  and  _438
REMARK  189  A    between atoms: _438  and  _439
REMARK  190  A    between atoms: _438  and  _441
REMARK  191  A    between atoms: _441  and  _442
REMARK  192  A    between atoms: _444  and  _446
REMARK  193  A    between atoms: _446  and  _447
REMARK  194  A    between atoms: _450  and  _452
REMARK  195  A    between atoms: _452  and  _453
REMARK  196  A    between atoms: _452  and  _455
REMARK  197  A    between atoms: _455  and  _456
REMARK  198  A    between atoms: _459  and  _461
REMARK  199  A    between atoms: _461  and  _462
REMARK  200  A    between atoms: _461  and  _464
REMARK  201  A    between atoms: _467  and  _469
REMARK  202  A    between atoms: _469  and  _470
REMARK  203  A    between atoms: _472  and  _474
REMARK  204  A    between atoms: _474  and  _475
REMARK  205  A    between atoms: _477  and  _479
REMARK  206  A    between atoms: _479  and  _480
REMARK  207  A    between atoms: _479  and  _482
REMARK  208  A    between atoms: _482  and  _483
REMARK  209  A    between atoms: _483  and  _484
REMARK  210  A    between atoms: _489  and  _491
REMARK  211  A    between atoms: _491  and  _492
REMARK  212  A    between atoms: _491  and  _494
REMARK  213  A    between atoms: _494  and  _495
REMARK  214  A    between atoms: _498  and  _500
REMARK  215  A    between atoms: _500  and  _501
REMARK  216  A    between atoms: _500  and  _503
REMARK  217  A    between atoms: _503  and  _504
REMARK  218  A    between atoms: _504  and  _505
REMARK  219  A    between atoms: _505  and  _506
REMARK  220  A    between atoms: _515  and  _517
REMARK  221  A    between atoms: _517  and  _518
REMARK  222  A    between atoms: _517  and  _520
REMARK  223  A    between atoms: _520  and  _521
REMARK  224  A    between atoms: _521  and  _522
REMARK  225  A    between atoms: _525  and  _526
REMARK  226  A    between atoms: _531  and  _533
REMARK  227  A    between atoms: _533  and  _534
REMARK  228  A    between atoms: _533  and  _536
REMARK  229  A    between atoms: _539  and  _541
REMARK  230  A    between atoms: _541  and  _542
REMARK  231  A    between atoms: _541  and  _544
REMARK  232  A    between atoms: _544  and  _545
REMARK  233  A    between atoms: _545  and  _546
REMARK  234  A    between atoms: _552  and  _553
REMARK  235  A    between atoms: _558  and  _560
REMARK  236  A    between atoms: _560  and  _561
REMARK  237  A    between atoms: _560  and  _563
REMARK  238  A    between atoms: _563  and  _564
REMARK  239  A    between atoms: _567  and  _569
REMARK  240  A    between atoms: _569  and  _570
REMARK  241  A    between atoms: _569  and  _572
REMARK  242  A    between atoms: _572  and  _573
REMARK  243  A    between atoms: _573  and  _574
REMARK  244  A    between atoms: _577  and  _579
REMARK  245  A    between atoms: _579  and  _580
REMARK  246  A    between atoms: _579  and  _582
REMARK  247  A    between atoms: _585  and  _587
REMARK  248  A    between atoms: _587  and  _588
REMARK  249  A    between atoms: _591  and  _593
REMARK  250  A    between atoms: _593  and  _594
REMARK  251  A    between atoms: _593  and  _596
REMARK  252  A    between atoms: _596  and  _597
REMARK  253  A    between atoms: _597  and  _598
REMARK  254  A    between atoms: _601  and  _603
REMARK  255  A    between atoms: _603  and  _604
REMARK  256  A    between atoms: _606  and  _608
REMARK  257  A    between atoms: _608  and  _609
REMARK  258  A    between atoms: _608  and  _611
REMARK  259  A    between atoms: _611  and  _612
REMARK                            x       y       z     vdW  Elec       q    Type
REMARK                         _______ _______ _______ _____ _____    ______ ____
ROOT
ATOM      1  O   HOH     1      16.666  72.761  25.188  0.00  0.00    +0.000 OA
ENDROOT
TORSDOF 0
REMARK  Name = ../refined-set-2016/4jne/4jne_pocket.pdb
REMARK  259 active torsions:
REMARK  status: ('A' for Active; 'I' for Inactive)
REMARK    1  A    between atoms: _1  and  _3
REMARK    2  A    between atoms: _3  and  _4
REMARK    3  A    between atoms: _3  and  _6
REMARK    4  A    between atoms: _6  and  _7
REMARK    5  A    between atoms: _10  and  _12
REMARK    6  A    between atoms: _12  and  _13
REMARK    7  A    between atoms: _12  and  _15
REMARK    8  A    between atoms: _15  and  _16
REMARK    9  A    between atoms: _19  and  _21
REMARK   10  A    between atoms: _21  and  _22
REMARK   11  A    between atoms: _24  and  _26
REMARK   12  A    between atoms: _26  and  _27
REMARK   13  A    between atoms: _26  and  _29
REMARK   14  A    between atoms: _29  and  _30
REMARK   15  A    between atoms: _33  and  _35
REMARK   16  A    between atoms: _35  and  _36
REMARK   17  A    between atoms: _35  and  _38
REMARK   18  A    between atoms: _38  and  _39
REMARK   19  A    between atoms: _42  and  _44
REMARK   20  A    between atoms: _44  and  _45
REMARK   21  A    between atoms: _44  and  _47
REMARK   22  A    between atoms: _47  and  _48
REMARK   23  A    between atoms: _53  and  _55
REMARK   24  A    between atoms: _55  and  _56
REMARK   25  A    between atoms: _55  and  _58
REMARK   26  A    between atoms: _58  and  _59
REMARK   27  A    between atoms: _61  and  _63
REMARK   28  A    between atoms: _63  and  _64
REMARK   29  A    between atoms: _63  and  _66
REMARK   30  A    between atoms: _68  and  _70
REMARK   31  A    between atoms: _70  and  _71
REMARK   32  A    between atoms: _70  and  _73
REMARK   33  A    between atoms: _73  and  _74
REMARK   34  A    between atoms: _77  and  _79
REMARK   35  A    between atoms: _79  and  _80
REMARK   36  A    between atoms: _79  and  _82
REMARK   37  A    between atoms: _82  and  _83
REMARK   38  A    between atoms: _87  and  _88
REMARK   39  A    between atoms: _93  and  _95
REMARK   40  A    between atoms: _95  and  _96
REMARK   41  A    between atoms: _95  and  _98
REMARK   42  A    between atoms: _98  and  _99
REMARK   43  A    between atoms: _101  and  _103
REMARK   44  A    between atoms: _103  and  _104
REMARK   45  A    between atoms: _103  and  _106
REMARK   46  A    between atoms: _106  and  _107
REMARK   47  A    between atoms: _107  and  _108
REMARK   48  A    between atoms: _108  and  _109
REMARK   49  A    between atoms: _109  and  _110
REMARK   50  A    between atoms: _114  and  _116
REMARK   51  A    between atoms: _116  and  _117
REMARK   52  A    between atoms: _120  and  _122
REMARK   53  A    between atoms: _122  and  _123
REMARK   54  A    between atoms: _122  and  _125
REMARK   55  A    between atoms: _125  and  _126
REMARK   56  A    between atoms: _126  and  _127
REMARK   57  A    between atoms: _127  and  _128
REMARK   58  A    between atoms: _128  and  _129
REMARK   59  A    between atoms: _133  and  _135
REMARK   60  A    between atoms: _135  and  _136
REMARK   61  A    between atoms: _135  and  _138
REMARK   62  A    between atoms: _138  and  _139
REMARK   63  A    between atoms: _139  and  _140
REMARK   64  A    between atoms: _140  and  _141
REMARK   65  A    between atoms: _150  and  _152
REMARK   66  A    between atoms: _152  and  _153
REMARK   67  A    between atoms: _152  and  _155
REMARK   68  A    between atoms: _155  and  _156
REMARK   69  A    between atoms: _159  and  _161
REMARK   70  A    between atoms: _161  and  _162
REMARK   71  A    between atoms: _161  and  _164
REMARK   72  A    between atoms: _168  and  _169
REMARK   73  A    between atoms: _174  and  _176
REMARK   74  A    between atoms: _176  and  _177
REMARK   75  A    between atoms: _180  and  _182
REMARK   76  A    between atoms: _182  and  _183
REMARK   77  A    between atoms: _182  and  _185
REMARK   78  A    between atoms: _185  and  _186
REMARK   79  A    between atoms: _192  and  _194
REMARK   80  A    between atoms: _194  and  _195
REMARK   81  A    between atoms: _194  and  _197
REMARK   82  A    between atoms: _197  and  _198
REMARK   83  A    between atoms: _198  and  _199
REMARK   84  A    between atoms: _202  and  _204
REMARK   85  A    between atoms: _204  and  _205
REMARK   86  A    between atoms: _204  and  _207
REMARK   87  A    between atoms: _207  and  _208
REMARK   88  A    between atoms: _211  and  _213
REMARK   89  A    between atoms: _213  and  _214
REMARK   90  A    between atoms: _213  and  _216
REMARK   91  A    between atoms: _216  and  _217
REMARK   92  A    between atoms: _220  and  _222
REMARK   93  A    between atoms: _222  and  _223
REMARK   94  A    between atoms: _225  and  _227
REMARK   95  A    between atoms: _227  and  _228
REMARK   96  A    between atoms: _230  and  _232
REMARK   97  A    between atoms: _232  and  _233
REMARK   98  A    between atoms: _235  and  _237
REMARK   99  A    between atoms: _237  and  _238
REMARK  100  A    between atoms: _241  and  _243
REMARK  101  A    between atoms: _243  and  _244
REMARK  102  A    between atoms: _243  and  _246
REMARK  103  A    between atoms: _246  and  _247
REMARK  104  A    between atoms: _253  and  _255
REMARK  105  A    between atoms: _255  and  _256
REMARK  106  A    between atoms: _255  and  _258
REMARK  107  A    between atoms: _258  and  _259
REMARK  108  A    between atoms: _262  and  _264
REMARK  109  A    between atoms: _264  and  _265
REMARK  110  A    between atoms: _264  and  _267
REMARK  111  A    between atoms: _267  and  _268
REMARK  112  A    between atoms: _271  and  _273
REMARK  113  A    between atoms: _273  and  _274
REMARK  114  A    between atoms: _273  and  _276
REMARK  115  A    between atoms: _276  and  _277
REMARK  116  A    between atoms: _280  and  _282
REMARK  117  A    between atoms: _282  and  _283
REMARK  118  A    between atoms: _282  and  _285
REMARK  119  A    between atoms: _285  and  _286
REMARK  120  A    between atoms: _289  and  _291
REMARK  121  A    between atoms: _291  and  _292
REMARK  122  A    between atoms: _294  and  _296
REMARK  123  A    between atoms: _296  and  _297
REMARK  124  A    between atoms: _299  and  _301
REMARK  125  A    between atoms: _301  and  _302
REMARK  126  A    between atoms: _301  and  _304
REMARK  127  A    between atoms: _304  and  _305
REMARK  128  A    between atoms: _305  and  _306
REMARK  129  A    between atoms: _309  and  _311
REMARK  130  A    between atoms: _311  and  _312
REMARK  131  A    between atoms: _311  and  _314
REMARK  132  A    between atoms: _314  and  _315
REMARK  133  A    between atoms: _318  and  _320
REMARK  134  A    between atoms: _320  and  _321
REMARK  135  A    between atoms: _320  and  _323
REMARK  136  A    between atoms: _323  and  _324
REMARK  137  A    between atoms: _330  and  _332
REMARK  138  A    between atoms: _332  and  _333
REMARK  139  A    between atoms: _332  and  _335
REMARK  140  A    between atoms: _335  and  _336
REMARK  141  A    between atoms: _339  and  _341
REMARK  142  A    between atoms: _341  and  _342
REMARK  143  A    between atoms: _341  and  _344
REMARK  144  A    between atoms: _344  and  _345
REMARK  145  A    between atoms: _345  and  _346
REMARK  146  A    between atoms: _346  and  _347
REMARK  147  A    between atoms: _347  and  _348
REMARK  148  A    between atoms: _352  and  _354
REMARK  149  A    between atoms: _354  and  _355
REMARK  150  A    between atoms: _358  and  _360
REMARK  151  A    between atoms: _360  and  _361
REMARK  152  A    between atoms: _360  and  _363
REMARK  153  A    between atoms: _363  and  _364
REMARK  154  A    between atoms: _364  and  _365
REMARK  155  A    between atoms: _368  and  _370
REMARK  156  A    between atoms: _370  and  _371
REMARK  157  A    between atoms: _370  and  _373
REMARK  158  A    between atoms: _373  and  _374
REMARK  159  A    between atoms: _374  and  _375
REMARK  160  A    between atoms: _375  and  _376
REMARK  161  A    between atoms: _376  and  _377
REMARK  162  A    between atoms: _381  and  _383
REMARK  163  A    between atoms: _383  and  _384
REMARK  164  A    between atoms: _387  and  _389
REMARK  165  A    between atoms: _389  and  _390
REMARK  166  A    between atoms: _389  and  _392
REMARK  167  A    between atoms: _392  and  _393
REMARK  168  A    between atoms: _393  and  _394
REMARK  169  A    between atoms: _394  and  _395
REMARK  170  A    between atoms: _395  and  _396
REMARK  171  A    between atoms: _400  and  _402
REMARK  172  A    between atoms: _402  and  _403
REMARK  173  A    between atoms: _402  and  _405
REMARK  174  A    between atoms: _405  and  _406
REMARK  175  A    between atoms: _409  and  _411
REMARK  176  A    between atoms: _411  and  _412
REMARK  177  A    between atoms: _411  and  _414
REMARK  178  A    between atoms: _414  and  _415
REMARK  179  A    between atoms: _415  and  _416
REMARK  180  A    between atoms: _419  and  _421
REMARK  181  A    between atoms: _421  and  _422
REMARK  182  A    between atoms: _421  and  _424
REMARK  183  A    between atoms: _424  and  _425
REMARK  184  A    between atoms: _428  and  _430
REMARK  185  A    between atoms: _430  and  _431
REMARK  186  A    between atoms: _430  and  _433
REMARK  187  A    between atoms: _433  and  _434
REMARK  188  A    between atoms: _436  and  _438
REMARK  189  A    between atoms: _438  and  _439
REMARK  190  A    between atoms: _438  and  _441
REMARK  191  A    between atoms: _441  and  _442
REMARK  192  A    between atoms: _444  and  _446
REMARK  193  A    between atoms: _446  and  _447
REMARK  194  A    between atoms: _450  and  _452
REMARK  195  A    between atoms: _452  and  _453
REMARK  196  A    between atoms: _452  and  _455
REMARK  197  A    between atoms: _455  and  _456
REMARK  198  A    between atoms: _459  and  _461
REMARK  199  A    between atoms: _461  and  _462
REMARK  200  A    between atoms: _461  and  _464
REMARK  201  A    between atoms: _467  and  _469
REMARK  202  A    between atoms: _469  and  _470
REMARK  203  A    between atoms: _472  and  _474
REMARK  204  A    between atoms: _474  and  _475
REMARK  205  A    between atoms: _477  and  _479
REMARK  206  A    between atoms: _479  and  _480
REMARK  207  A    between atoms: _479  and  _482
REMARK  208  A    between atoms: _482  and  _483
REMARK  209  A    between atoms: _483  and  _484
REMARK  210  A    between atoms: _489  and  _491
REMARK  211  A    between atoms: _491  and  _492
REMARK  212  A    between atoms: _491  and  _494
REMARK  213  A    between atoms: _494  and  _495
REMARK  214  A    between atoms: _498  and  _500
REMARK  215  A    between atoms: _500  and  _501
REMARK  216  A    between atoms: _500  and  _503
REMARK  217  A    between atoms: _503  and  _504
REMARK  218  A    between atoms: _504  and  _505
REMARK  219  A    between atoms: _505  and  _506
REMARK  220  A    between atoms: _515  and  _517
REMARK  221  A    between atoms: _517  and  _518
REMARK  222  A    between atoms: _517  and  _520
REMARK  223  A    between atoms: _520  and  _521
REMARK  224  A    between atoms: _521  and  _522
REMARK  225  A    between atoms: _525  and  _526
REMARK  226  A    between atoms: _531  and  _533
REMARK  227  A    between atoms: _533  and  _534
REMARK  228  A    between atoms: _533  and  _536
REMARK  229  A    between atoms: _539  and  _541
REMARK  230  A    between atoms: _541  and  _542
REMARK  231  A    between atoms: _541  and  _544
REMARK  232  A    between atoms: _544  and  _545
REMARK  233  A    between atoms: _545  and  _546
REMARK  234  A    between atoms: _552  and  _553
REMARK  235  A    between atoms: _558  and  _560
REMARK  236  A    between atoms: _560  and  _561
REMARK  237  A    between atoms: _560  and  _563
REMARK  238  A    between atoms: _563  and  _564
REMARK  239  A    between atoms: _567  and  _569
REMARK  240  A    between atoms: _569  and  _570
REMARK  241  A    between atoms: _569  and  _572
REMARK  242  A    between atoms: _572  and  _573
REMARK  243  A    between atoms: _573  and  _574
REMARK  244  A    between atoms: _577  and  _579
REMARK  245  A    between atoms: _579  and  _580
REMARK  246  A    between atoms: _579  and  _582
REMARK  247  A    between atoms: _585  and  _587
REMARK  248  A    between atoms: _587  and  _588
REMARK  249  A    between atoms: _591  and  _593
REMARK  250  A    between atoms: _593  and  _594
REMARK  251  A    between atoms: _593  and  _596
REMARK  252  A    between atoms: _596  and  _597
REMARK  253  A    between atoms: _597  and  _598
REMARK  254  A    between atoms: _601  and  _603
REMARK  255  A    between atoms: _603  and  _604
REMARK  256  A    between atoms: _606  and  _608
REMARK  257  A    between atoms: _608  and  _609
REMARK  258  A    between atoms: _608  and  _611
REMARK  259  A    between atoms: _611  and  _612
REMARK                            x       y       z     vdW  Elec       q    Type
REMARK                         _______ _______ _______ _____ _____    ______ ____
ROOT
ATOM      1  O   HOH     1       8.772  75.303  22.227  0.00  0.00    +0.000 OA
ENDROOT
TORSDOF 0
REMARK  Name = ../refined-set-2016/4jne/4jne_pocket.pdb
REMARK  259 active torsions:
REMARK  status: ('A' for Active; 'I' for Inactive)
REMARK    1  A    between atoms: _1  and  _3
REMARK    2  A    between atoms: _3  and  _4
REMARK    3  A    between atoms: _3  and  _6
REMARK    4  A    between atoms: _6  and  _7
REMARK    5  A    between atoms: _10  and  _12
REMARK    6  A    between atoms: _12  and  _13
REMARK    7  A    between atoms: _12  and  _15
REMARK    8  A    between atoms: _15  and  _16
REMARK    9  A    between atoms: _19  and  _21
REMARK   10  A    between atoms: _21  and  _22
REMARK   11  A    between atoms: _24  and  _26
REMARK   12  A    between atoms: _26  and  _27
REMARK   13  A    between atoms: _26  and  _29
REMARK   14  A    between atoms: _29  and  _30
REMARK   15  A    between atoms: _33  and  _35
REMARK   16  A    between atoms: _35  and  _36
REMARK   17  A    between atoms: _35  and  _38
REMARK   18  A    between atoms: _38  and  _39
REMARK   19  A    between atoms: _42  and  _44
REMARK   20  A    between atoms: _44  and  _45
REMARK   21  A    between atoms: _44  and  _47
REMARK   22  A    between atoms: _47  and  _48
REMARK   23  A    between atoms: _53  and  _55
REMARK   24  A    between atoms: _55  and  _56
REMARK   25  A    between atoms: _55  and  _58
REMARK   26  A    between atoms: _58  and  _59
REMARK   27  A    between atoms: _61  and  _63
REMARK   28  A    between atoms: _63  and  _64
REMARK   29  A    between atoms: _63  and  _66
REMARK   30  A    between atoms: _68  and  _70
REMARK   31  A    between atoms: _70  and  _71
REMARK   32  A    between atoms: _70  and  _73
REMARK   33  A    between atoms: _73  and  _74
REMARK   34  A    between atoms: _77  and  _79
REMARK   35  A    between atoms: _79  and  _80
REMARK   36  A    between atoms: _79  and  _82
REMARK   37  A    between atoms: _82  and  _83
REMARK   38  A    between atoms: _87  and  _88
REMARK   39  A    between atoms: _93  and  _95
REMARK   40  A    between atoms: _95  and  _96
REMARK   41  A    between atoms: _95  and  _98
REMARK   42  A    between atoms: _98  and  _99
REMARK   43  A    between atoms: _101  and  _103
REMARK   44  A    between atoms: _103  and  _104
REMARK   45  A    between atoms: _103  and  _106
REMARK   46  A    between atoms: _106  and  _107
REMARK   47  A    between atoms: _107  and  _108
REMARK   48  A    between atoms: _108  and  _109
REMARK   49  A    between atoms: _109  and  _110
REMARK   50  A    between atoms: _114  and  _116
REMARK   51  A    between atoms: _116  and  _117
REMARK   52  A    between atoms: _120  and  _122
REMARK   53  A    between atoms: _122  and  _123
REMARK   54  A    between atoms: _122  and  _125
REMARK   55  A    between atoms: _125  and  _126
REMARK   56  A    between atoms: _126  and  _127
REMARK   57  A    between atoms: _127  and  _128
REMARK   58  A    between atoms: _128  and  _129
REMARK   59  A    between atoms: _133  and  _135
REMARK   60  A    between atoms: _135  and  _136
REMARK   61  A    between atoms: _135  and  _138
REMARK   62  A    between atoms: _138  and  _139
REMARK   63  A    between atoms: _139  and  _140
REMARK   64  A    between atoms: _140  and  _141
REMARK   65  A    between atoms: _150  and  _152
REMARK   66  A    between atoms: _152  and  _153
REMARK   67  A    between atoms: _152  and  _155
REMARK   68  A    between atoms: _155  and  _156
REMARK   69  A    between atoms: _159  and  _161
REMARK   70  A    between atoms: _161  and  _162
REMARK   71  A    between atoms: _161  and  _164
REMARK   72  A    between atoms: _168  and  _169
REMARK   73  A    between atoms: _174  and  _176
REMARK   74  A    between atoms: _176  and  _177
REMARK   75  A    between atoms: _180  and  _182
REMARK   76  A    between atoms: _182  and  _183
REMARK   77  A    between atoms: _182  and  _185
REMARK   78  A    between atoms: _185  and  _186
REMARK   79  A    between atoms: _192  and  _194
REMARK   80  A    between atoms: _194  and  _195
REMARK   81  A    between atoms: _194  and  _197
REMARK   82  A    between atoms: _197  and  _198
REMARK   83  A    between atoms: _198  and  _199
REMARK   84  A    between atoms: _202  and  _204
REMARK   85  A    between atoms: _204  and  _205
REMARK   86  A    between atoms: _204  and  _207
REMARK   87  A    between atoms: _207  and  _208
REMARK   88  A    between atoms: _211  and  _213
REMARK   89  A    between atoms: _213  and  _214
REMARK   90  A    between atoms: _213  and  _216
REMARK   91  A    between atoms: _216  and  _217
REMARK   92  A    between atoms: _220  and  _222
REMARK   93  A    between atoms: _222  and  _223
REMARK   94  A    between atoms: _225  and  _227
REMARK   95  A    between atoms: _227  and  _228
REMARK   96  A    between atoms: _230  and  _232
REMARK   97  A    between atoms: _232  and  _233
REMARK   98  A    between atoms: _235  and  _237
REMARK   99  A    between atoms: _237  and  _238
REMARK  100  A    between atoms: _241  and  _243
REMARK  101  A    between atoms: _243  and  _244
REMARK  102  A    between atoms: _243  and  _246
REMARK  103  A    between atoms: _246  and  _247
REMARK  104  A    between atoms: _253  and  _255
REMARK  105  A    between atoms: _255  and  _256
REMARK  106  A    between atoms: _255  and  _258
REMARK  107  A    between atoms: _258  and  _259
REMARK  108  A    between atoms: _262  and  _264
REMARK  109  A    between atoms: _264  and  _265
REMARK  110  A    between atoms: _264  and  _267
REMARK  111  A    between atoms: _267  and  _268
REMARK  112  A    between atoms: _271  and  _273
REMARK  113  A    between atoms: _273  and  _274
REMARK  114  A    between atoms: _273  and  _276
REMARK  115  A    between atoms: _276  and  _277
REMARK  116  A    between atoms: _280  and  _282
REMARK  117  A    between atoms: _282  and  _283
REMARK  118  A    between atoms: _282  and  _285
REMARK  119  A    between atoms: _285  and  _286
REMARK  120  A    between atoms: _289  and  _291
REMARK  121  A    between atoms: _291  and  _292
REMARK  122  A    between atoms: _294  and  _296
REMARK  123  A    between atoms: _296  and  _297
REMARK  124  A    between atoms: _299  and  _301
REMARK  125  A    between atoms: _301  and  _302
REMARK  126  A    between atoms: _301  and  _304
REMARK  127  A    between atoms: _304  and  _305
REMARK  128  A    between atoms: _305  and  _306
REMARK  129  A    between atoms: _309  and  _311
REMARK  130  A    between atoms: _311  and  _312
REMARK  131  A    between atoms: _311  and  _314
REMARK  132  A    between atoms: _314  and  _315
REMARK  133  A    between atoms: _318  and  _320
REMARK  134  A    between atoms: _320  and  _321
REMARK  135  A    between atoms: _320  and  _323
REMARK  136  A    between atoms: _323  and  _324
REMARK  137  A    between atoms: _330  and  _332
REMARK  138  A    between atoms: _332  and  _333
REMARK  139  A    between atoms: _332  and  _335
REMARK  140  A    between atoms: _335  and  _336
REMARK  141  A    between atoms: _339  and  _341
REMARK  142  A    between atoms: _341  and  _342
REMARK  143  A    between atoms: _341  and  _344
REMARK  144  A    between atoms: _344  and  _345
REMARK  145  A    between atoms: _345  and  _346
REMARK  146  A    between atoms: _346  and  _347
REMARK  147  A    between atoms: _347  and  _348
REMARK  148  A    between atoms: _352  and  _354
REMARK  149  A    between atoms: _354  and  _355
REMARK  150  A    between atoms: _358  and  _360
REMARK  151  A    between atoms: _360  and  _361
REMARK  152  A    between atoms: _360  and  _363
REMARK  153  A    between atoms: _363  and  _364
REMARK  154  A    between atoms: _364  and  _365
REMARK  155  A    between atoms: _368  and  _370
REMARK  156  A    between atoms: _370  and  _371
REMARK  157  A    between atoms: _370  and  _373
REMARK  158  A    between atoms: _373  and  _374
REMARK  159  A    between atoms: _374  and  _375
REMARK  160  A    between atoms: _375  and  _376
REMARK  161  A    between atoms: _376  and  _377
REMARK  162  A    between atoms: _381  and  _383
REMARK  163  A    between atoms: _383  and  _384
REMARK  164  A    between atoms: _387  and  _389
REMARK  165  A    between atoms: _389  and  _390
REMARK  166  A    between atoms: _389  and  _392
REMARK  167  A    between atoms: _392  and  _393
REMARK  168  A    between atoms: _393  and  _394
REMARK  169  A    between atoms: _394  and  _395
REMARK  170  A    between atoms: _395  and  _396
REMARK  171  A    between atoms: _400  and  _402
REMARK  172  A    between atoms: _402  and  _403
REMARK  173  A    between atoms: _402  and  _405
REMARK  174  A    between atoms: _405  and  _406
REMARK  175  A    between atoms: _409  and  _411
REMARK  176  A    between atoms: _411  and  _412
REMARK  177  A    between atoms: _411  and  _414
REMARK  178  A    between atoms: _414  and  _415
REMARK  179  A    between atoms: _415  and  _416
REMARK  180  A    between atoms: _419  and  _421
REMARK  181  A    between atoms: _421  and  _422
REMARK  182  A    between atoms: _421  and  _424
REMARK  183  A    between atoms: _424  and  _425
REMARK  184  A    between atoms: _428  and  _430
REMARK  185  A    between atoms: _430  and  _431
REMARK  186  A    between atoms: _430  and  _433
REMARK  187  A    between atoms: _433  and  _434
REMARK  188  A    between atoms: _436  and  _438
REMARK  189  A    between atoms: _438  and  _439
REMARK  190  A    between atoms: _438  and  _441
REMARK  191  A    between atoms: _441  and  _442
REMARK  192  A    between atoms: _444  and  _446
REMARK  193  A    between atoms: _446  and  _447
REMARK  194  A    between atoms: _450  and  _452
REMARK  195  A    between atoms: _452  and  _453
REMARK  196  A    between atoms: _452  and  _455
REMARK  197  A    between atoms: _455  and  _456
REMARK  198  A    between atoms: _459  and  _461
REMARK  199  A    between atoms: _461  and  _462
REMARK  200  A    between atoms: _461  and  _464
REMARK  201  A    between atoms: _467  and  _469
REMARK  202  A    between atoms: _469  and  _470
REMARK  203  A    between atoms: _472  and  _474
REMARK  204  A    between atoms: _474  and  _475
REMARK  205  A    between atoms: _477  and  _479
REMARK  206  A    between atoms: _479  and  _480
REMARK  207  A    between atoms: _479  and  _482
REMARK  208  A    between atoms: _482  and  _483
REMARK  209  A    between atoms: _483  and  _484
REMARK  210  A    between atoms: _489  and  _491
REMARK  211  A    between atoms: _491  and  _492
REMARK  212  A    between atoms: _491  and  _494
REMARK  213  A    between atoms: _494  and  _495
REMARK  214  A    between atoms: _498  and  _500
REMARK  215  A    between atoms: _500  and  _501
REMARK  216  A    between atoms: _500  and  _503
REMARK  217  A    between atoms: _503  and  _504
REMARK  218  A    between atoms: _504  and  _505
REMARK  219  A    between atoms: _505  and  _506
REMARK  220  A    between atoms: _515  and  _517
REMARK  221  A    between atoms: _517  and  _518
REMARK  222  A    between atoms: _517  and  _520
REMARK  223  A    between atoms: _520  and  _521
REMARK  224  A    between atoms: _521  and  _522
REMARK  225  A    between atoms: _525  and  _526
REMARK  226  A    between atoms: _531  and  _533
REMARK  227  A    between atoms: _533  and  _534
REMARK  228  A    between atoms: _533  and  _536
REMARK  229  A    between atoms: _539  and  _541
REMARK  230  A    between atoms: _541  and  _542
REMARK  231  A    between atoms: _541  and  _544
REMARK  232  A    between atoms: _544  and  _545
REMARK  233  A    between atoms: _545  and  _546
REMARK  234  A    between atoms: _552  and  _553
REMARK  235  A    between atoms: _558  and  _560
REMARK  236  A    between atoms: _560  and  _561
REMARK  237  A    between atoms: _560  and  _563
REMARK  238  A    between atoms: _563  and  _564
REMARK  239  A    between atoms: _567  and  _569
REMARK  240  A    between atoms: _569  and  _570
REMARK  241  A    between atoms: _569  and  _572
REMARK  242  A    between atoms: _572  and  _573
REMARK  243  A    between atoms: _573  and  _574
REMARK  244  A    between atoms: _577  and  _579
REMARK  245  A    between atoms: _579  and  _580
REMARK  246  A    between atoms: _579  and  _582
REMARK  247  A    between atoms: _585  and  _587
REMARK  248  A    between atoms: _587  and  _588
REMARK  249  A    between atoms: _591  and  _593
REMARK  250  A    between atoms: _593  and  _594
REMARK  251  A    between atoms: _593  and  _596
REMARK  252  A    between atoms: _596  and  _597
REMARK  253  A    between atoms: _597  and  _598
REMARK  254  A    between atoms: _601  and  _603
REMARK  255  A    between atoms: _603  and  _604
REMARK  256  A    between atoms: _606  and  _608
REMARK  257  A    between atoms: _608  and  _609
REMARK  258  A    between atoms: _608  and  _611
REMARK  259  A    between atoms: _611  and  _612
REMARK                            x       y       z     vdW  Elec       q    Type
REMARK                         _______ _______ _______ _____ _____    ______ ____
ROOT
ATOM      1  O   HOH     1      23.352  75.490  22.192  0.00  0.00    +0.000 OA
ENDROOT
TORSDOF 0
REMARK  Name = ../refined-set-2016/4jne/4jne_pocket.pdb
REMARK  259 active torsions:
REMARK  status: ('A' for Active; 'I' for Inactive)
REMARK    1  A    between atoms: _1  and  _3
REMARK    2  A    between atoms: _3  and  _4
REMARK    3  A    between atoms: _3  and  _6
REMARK    4  A    between atoms: _6  and  _7
REMARK    5  A    between atoms: _10  and  _12
REMARK    6  A    between atoms: _12  and  _13
REMARK    7  A    between atoms: _12  and  _15
REMARK    8  A    between atoms: _15  and  _16
REMARK    9  A    between atoms: _19  and  _21
REMARK   10  A    between atoms: _21  and  _22
REMARK   11  A    between atoms: _24  and  _26
REMARK   12  A    between atoms: _26  and  _27
REMARK   13  A    between atoms: _26  and  _29
REMARK   14  A    between atoms: _29  and  _30
REMARK   15  A    between atoms: _33  and  _35
REMARK   16  A    between atoms: _35  and  _36
REMARK   17  A    between atoms: _35  and  _38
REMARK   18  A    between atoms: _38  and  _39
REMARK   19  A    between atoms: _42  and  _44
REMARK   20  A    between atoms: _44  and  _45
REMARK   21  A    between atoms: _44  and  _47
REMARK   22  A    between atoms: _47  and  _48
REMARK   23  A    between atoms: _53  and  _55
REMARK   24  A    between atoms: _55  and  _56
REMARK   25  A    between atoms: _55  and  _58
REMARK   26  A    between atoms: _58  and  _59
REMARK   27  A    between atoms: _61  and  _63
REMARK   28  A    between atoms: _63  and  _64
REMARK   29  A    between atoms: _63  and  _66
REMARK   30  A    between atoms: _68  and  _70
REMARK   31  A    between atoms: _70  and  _71
REMARK   32  A    between atoms: _70  and  _73
REMARK   33  A    between atoms: _73  and  _74
REMARK   34  A    between atoms: _77  and  _79
REMARK   35  A    between atoms: _79  and  _80
REMARK   36  A    between atoms: _79  and  _82
REMARK   37  A    between atoms: _82  and  _83
REMARK   38  A    between atoms: _87  and  _88
REMARK   39  A    between atoms: _93  and  _95
REMARK   40  A    between atoms: _95  and  _96
REMARK   41  A    between atoms: _95  and  _98
REMARK   42  A    between atoms: _98  and  _99
REMARK   43  A    between atoms: _101  and  _103
REMARK   44  A    between atoms: _103  and  _104
REMARK   45  A    between atoms: _103  and  _106
REMARK   46  A    between atoms: _106  and  _107
REMARK   47  A    between atoms: _107  and  _108
REMARK   48  A    between atoms: _108  and  _109
REMARK   49  A    between atoms: _109  and  _110
REMARK   50  A    between atoms: _114  and  _116
REMARK   51  A    between atoms: _116  and  _117
REMARK   52  A    between atoms: _120  and  _122
REMARK   53  A    between atoms: _122  and  _123
REMARK   54  A    between atoms: _122  and  _125
REMARK   55  A    between atoms: _125  and  _126
REMARK   56  A    between atoms: _126  and  _127
REMARK   57  A    between atoms: _127  and  _128
REMARK   58  A    between atoms: _128  and  _129
REMARK   59  A    between atoms: _133  and  _135
REMARK   60  A    between atoms: _135  and  _136
REMARK   61  A    between atoms: _135  and  _138
REMARK   62  A    between atoms: _138  and  _139
REMARK   63  A    between atoms: _139  and  _140
REMARK   64  A    between atoms: _140  and  _141
REMARK   65  A    between atoms: _150  and  _152
REMARK   66  A    between atoms: _152  and  _153
REMARK   67  A    between atoms: _152  and  _155
REMARK   68  A    between atoms: _155  and  _156
REMARK   69  A    between atoms: _159  and  _161
REMARK   70  A    between atoms: _161  and  _162
REMARK   71  A    between atoms: _161  and  _164
REMARK   72  A    between atoms: _168  and  _169
REMARK   73  A    between atoms: _174  and  _176
REMARK   74  A    between atoms: _176  and  _177
REMARK   75  A    between atoms: _180  and  _182
REMARK   76  A    between atoms: _182  and  _183
REMARK   77  A    between atoms: _182  and  _185
REMARK   78  A    between atoms: _185  and  _186
REMARK   79  A    between atoms: _192  and  _194
REMARK   80  A    between atoms: _194  and  _195
REMARK   81  A    between atoms: _194  and  _197
REMARK   82  A    between atoms: _197  and  _198
REMARK   83  A    between atoms: _198  and  _199
REMARK   84  A    between atoms: _202  and  _204
REMARK   85  A    between atoms: _204  and  _205
REMARK   86  A    between atoms: _204  and  _207
REMARK   87  A    between atoms: _207  and  _208
REMARK   88  A    between atoms: _211  and  _213
REMARK   89  A    between atoms: _213  and  _214
REMARK   90  A    between atoms: _213  and  _216
REMARK   91  A    between atoms: _216  and  _217
REMARK   92  A    between atoms: _220  and  _222
REMARK   93  A    between atoms: _222  and  _223
REMARK   94  A    between atoms: _225  and  _227
REMARK   95  A    between atoms: _227  and  _228
REMARK   96  A    between atoms: _230  and  _232
REMARK   97  A    between atoms: _232  and  _233
REMARK   98  A    between atoms: _235  and  _237
REMARK   99  A    between atoms: _237  and  _238
REMARK  100  A    between atoms: _241  and  _243
REMARK  101  A    between atoms: _243  and  _244
REMARK  102  A    between atoms: _243  and  _246
REMARK  103  A    between atoms: _246  and  _247
REMARK  104  A    between atoms: _253  and  _255
REMARK  105  A    between atoms: _255  and  _256
REMARK  106  A    between atoms: _255  and  _258
REMARK  107  A    between atoms: _258  and  _259
REMARK  108  A    between atoms: _262  and  _264
REMARK  109  A    between atoms: _264  and  _265
REMARK  110  A    between atoms: _264  and  _267
REMARK  111  A    between atoms: _267  and  _268
REMARK  112  A    between atoms: _271  and  _273
REMARK  113  A    between atoms: _273  and  _274
REMARK  114  A    between atoms: _273  and  _276
REMARK  115  A    between atoms: _276  and  _277
REMARK  116  A    between atoms: _280  and  _282
REMARK  117  A    between atoms: _282  and  _283
REMARK  118  A    between atoms: _282  and  _285
REMARK  119  A    between atoms: _285  and  _286
REMARK  120  A    between atoms: _289  and  _291
REMARK  121  A    between atoms: _291  and  _292
REMARK  122  A    between atoms: _294  and  _296
REMARK  123  A    between atoms: _296  and  _297
REMARK  124  A    between atoms: _299  and  _301
REMARK  125  A    between atoms: _301  and  _302
REMARK  126  A    between atoms: _301  and  _304
REMARK  127  A    between atoms: _304  and  _305
REMARK  128  A    between atoms: _305  and  _306
REMARK  129  A    between atoms: _309  and  _311
REMARK  130  A    between atoms: _311  and  _312
REMARK  131  A    between atoms: _311  and  _314
REMARK  132  A    between atoms: _314  and  _315
REMARK  133  A    between atoms: _318  and  _320
REMARK  134  A    between atoms: _320  and  _321
REMARK  135  A    between atoms: _320  and  _323
REMARK  136  A    between atoms: _323  and  _324
REMARK  137  A    between atoms: _330  and  _332
REMARK  138  A    between atoms: _332  and  _333
REMARK  139  A    between atoms: _332  and  _335
REMARK  140  A    between atoms: _335  and  _336
REMARK  141  A    between atoms: _339  and  _341
REMARK  142  A    between atoms: _341  and  _342
REMARK  143  A    between atoms: _341  and  _344
REMARK  144  A    between atoms: _344  and  _345
REMARK  145  A    between atoms: _345  and  _346
REMARK  146  A    between atoms: _346  and  _347
REMARK  147  A    between atoms: _347  and  _348
REMARK  148  A    between atoms: _352  and  _354
REMARK  149  A    between atoms: _354  and  _355
REMARK  150  A    between atoms: _358  and  _360
REMARK  151  A    between atoms: _360  and  _361
REMARK  152  A    between atoms: _360  and  _363
REMARK  153  A    between atoms: _363  and  _364
REMARK  154  A    between atoms: _364  and  _365
REMARK  155  A    between atoms: _368  and  _370
REMARK  156  A    between atoms: _370  and  _371
REMARK  157  A    between atoms: _370  and  _373
REMARK  158  A    between atoms: _373  and  _374
REMARK  159  A    between atoms: _374  and  _375
REMARK  160  A    between atoms: _375  and  _376
REMARK  161  A    between atoms: _376  and  _377
REMARK  162  A    between atoms: _381  and  _383
REMARK  163  A    between atoms: _383  and  _384
REMARK  164  A    between atoms: _387  and  _389
REMARK  165  A    between atoms: _389  and  _390
REMARK  166  A    between atoms: _389  and  _392
REMARK  167  A    between atoms: _392  and  _393
REMARK  168  A    between atoms: _393  and  _394
REMARK  169  A    between atoms: _394  and  _395
REMARK  170  A    between atoms: _395  and  _396
REMARK  171  A    between atoms: _400  and  _402
REMARK  172  A    between atoms: _402  and  _403
REMARK  173  A    between atoms: _402  and  _405
REMARK  174  A    between atoms: _405  and  _406
REMARK  175  A    between atoms: _409  and  _411
REMARK  176  A    between atoms: _411  and  _412
REMARK  177  A    between atoms: _411  and  _414
REMARK  178  A    between atoms: _414  and  _415
REMARK  179  A    between atoms: _415  and  _416
REMARK  180  A    between atoms: _419  and  _421
REMARK  181  A    between atoms: _421  and  _422
REMARK  182  A    between atoms: _421  and  _424
REMARK  183  A    between atoms: _424  and  _425
REMARK  184  A    between atoms: _428  and  _430
REMARK  185  A    between atoms: _430  and  _431
REMARK  186  A    between atoms: _430  and  _433
REMARK  187  A    between atoms: _433  and  _434
REMARK  188  A    between atoms: _436  and  _438
REMARK  189  A    between atoms: _438  and  _439
REMARK  190  A    between atoms: _438  and  _441
REMARK  191  A    between atoms: _441  and  _442
REMARK  192  A    between atoms: _444  and  _446
REMARK  193  A    between atoms: _446  and  _447
REMARK  194  A    between atoms: _450  and  _452
REMARK  195  A    between atoms: _452  and  _453
REMARK  196  A    between atoms: _452  and  _455
REMARK  197  A    between atoms: _455  and  _456
REMARK  198  A    between atoms: _459  and  _461
REMARK  199  A    between atoms: _461  and  _462
REMARK  200  A    between atoms: _461  and  _464
REMARK  201  A    between atoms: _467  and  _469
REMARK  202  A    between atoms: _469  and  _470
REMARK  203  A    between atoms: _472  and  _474
REMARK  204  A    between atoms: _474  and  _475
REMARK  205  A    between atoms: _477  and  _479
REMARK  206  A    between atoms: _479  and  _480
REMARK  207  A    between atoms: _479  and  _482
REMARK  208  A    between atoms: _482  and  _483
REMARK  209  A    between atoms: _483  and  _484
REMARK  210  A    between atoms: _489  and  _491
REMARK  211  A    between atoms: _491  and  _492
REMARK  212  A    between atoms: _491  and  _494
REMARK  213  A    between atoms: _494  and  _495
REMARK  214  A    between atoms: _498  and  _500
REMARK  215  A    between atoms: _500  and  _501
REMARK  216  A    between atoms: _500  and  _503
REMARK  217  A    between atoms: _503  and  _504
REMARK  218  A    between atoms: _504  and  _505
REMARK  219  A    between atoms: _505  and  _506
REMARK  220  A    between atoms: _515  and  _517
REMARK  221  A    between atoms: _517  and  _518
REMARK  222  A    between atoms: _517  and  _520
REMARK  223  A    between atoms: _520  and  _521
REMARK  224  A    between atoms: _521  and  _522
REMARK  225  A    between atoms: _525  and  _526
REMARK  226  A    between atoms: _531  and  _533
REMARK  227  A    between atoms: _533  and  _534
REMARK  228  A    between atoms: _533  and  _536
REMARK  229  A    between atoms: _539  and  _541
REMARK  230  A    between atoms: _541  and  _542
REMARK  231  A    between atoms: _541  and  _544
REMARK  232  A    between atoms: _544  and  _545
REMARK  233  A    between atoms: _545  and  _546
REMARK  234  A    between atoms: _552  and  _553
REMARK  235  A    between atoms: _558  and  _560
REMARK  236  A    between atoms: _560  and  _561
REMARK  237  A    between atoms: _560  and  _563
REMARK  238  A    between atoms: _563  and  _564
REMARK  239  A    between atoms: _567  and  _569
REMARK  240  A    between atoms: _569  and  _570
REMARK  241  A    between atoms: _569  and  _572
REMARK  242  A    between atoms: _572  and  _573
REMARK  243  A    between atoms: _573  and  _574
REMARK  244  A    between atoms: _577  and  _579
REMARK  245  A    between atoms: _579  and  _580
REMARK  246  A    between atoms: _579  and  _582
REMARK  247  A    between atoms: _585  and  _587
REMARK  248  A    between atoms: _587  and  _588
REMARK  249  A    between atoms: _591  and  _593
REMARK  250  A    between atoms: _593  and  _594
REMARK  251  A    between atoms: _593  and  _596
REMARK  252  A    between atoms: _596  and  _597
REMARK  253  A    between atoms: _597  and  _598
REMARK  254  A    between atoms: _601  and  _603
REMARK  255  A    between atoms: _603  and  _604
REMARK  256  A    between atoms: _606  and  _608
REMARK  257  A    between atoms: _608  and  _609
REMARK  258  A    between atoms: _608  and  _611
REMARK  259  A    between atoms: _611  and  _612
REMARK                            x       y       z     vdW  Elec       q    Type
REMARK                         _______ _______ _______ _____ _____    ______ ____
ROOT
ATOM      1  O   HOH     1       7.913  77.779  21.314  0.00  0.00    +0.000 OA
ENDROOT
TORSDOF 0
REMARK  Name = ../refined-set-2016/4jne/4jne_pocket.pdb
REMARK  259 active torsions:
REMARK  status: ('A' for Active; 'I' for Inactive)
REMARK    1  A    between atoms: _1  and  _3
REMARK    2  A    between atoms: _3  and  _4
REMARK    3  A    between atoms: _3  and  _6
REMARK    4  A    between atoms: _6  and  _7
REMARK    5  A    between atoms: _10  and  _12
REMARK    6  A    between atoms: _12  and  _13
REMARK    7  A    between atoms: _12  and  _15
REMARK    8  A    between atoms: _15  and  _16
REMARK    9  A    between atoms: _19  and  _21
REMARK   10  A    between atoms: _21  and  _22
REMARK   11  A    between atoms: _24  and  _26
REMARK   12  A    between atoms: _26  and  _27
REMARK   13  A    between atoms: _26  and  _29
REMARK   14  A    between atoms: _29  and  _30
REMARK   15  A    between atoms: _33  and  _35
REMARK   16  A    between atoms: _35  and  _36
REMARK   17  A    between atoms: _35  and  _38
REMARK   18  A    between atoms: _38  and  _39
REMARK   19  A    between atoms: _42  and  _44
REMARK   20  A    between atoms: _44  and  _45
REMARK   21  A    between atoms: _44  and  _47
REMARK   22  A    between atoms: _47  and  _48
REMARK   23  A    between atoms: _53  and  _55
REMARK   24  A    between atoms: _55  and  _56
REMARK   25  A    between atoms: _55  and  _58
REMARK   26  A    between atoms: _58  and  _59
REMARK   27  A    between atoms: _61  and  _63
REMARK   28  A    between atoms: _63  and  _64
REMARK   29  A    between atoms: _63  and  _66
REMARK   30  A    between atoms: _68  and  _70
REMARK   31  A    between atoms: _70  and  _71
REMARK   32  A    between atoms: _70  and  _73
REMARK   33  A    between atoms: _73  and  _74
REMARK   34  A    between atoms: _77  and  _79
REMARK   35  A    between atoms: _79  and  _80
REMARK   36  A    between atoms: _79  and  _82
REMARK   37  A    between atoms: _82  and  _83
REMARK   38  A    between atoms: _87  and  _88
REMARK   39  A    between atoms: _93  and  _95
REMARK   40  A    between atoms: _95  and  _96
REMARK   41  A    between atoms: _95  and  _98
REMARK   42  A    between atoms: _98  and  _99
REMARK   43  A    between atoms: _101  and  _103
REMARK   44  A    between atoms: _103  and  _104
REMARK   45  A    between atoms: _103  and  _106
REMARK   46  A    between atoms: _106  and  _107
REMARK   47  A    between atoms: _107  and  _108
REMARK   48  A    between atoms: _108  and  _109
REMARK   49  A    between atoms: _109  and  _110
REMARK   50  A    between atoms: _114  and  _116
REMARK   51  A    between atoms: _116  and  _117
REMARK   52  A    between atoms: _120  and  _122
REMARK   53  A    between atoms: _122  and  _123
REMARK   54  A    between atoms: _122  and  _125
REMARK   55  A    between atoms: _125  and  _126
REMARK   56  A    between atoms: _126  and  _127
REMARK   57  A    between atoms: _127  and  _128
REMARK   58  A    between atoms: _128  and  _129
REMARK   59  A    between atoms: _133  and  _135
REMARK   60  A    between atoms: _135  and  _136
REMARK   61  A    between atoms: _135  and  _138
REMARK   62  A    between atoms: _138  and  _139
REMARK   63  A    between atoms: _139  and  _140
REMARK   64  A    between atoms: _140  and  _141
REMARK   65  A    between atoms: _150  and  _152
REMARK   66  A    between atoms: _152  and  _153
REMARK   67  A    between atoms: _152  and  _155
REMARK   68  A    between atoms: _155  and  _156
REMARK   69  A    between atoms: _159  and  _161
REMARK   70  A    between atoms: _161  and  _162
REMARK   71  A    between atoms: _161  and  _164
REMARK   72  A    between atoms: _168  and  _169
REMARK   73  A    between atoms: _174  and  _176
REMARK   74  A    between atoms: _176  and  _177
REMARK   75  A    between atoms: _180  and  _182
REMARK   76  A    between atoms: _182  and  _183
REMARK   77  A    between atoms: _182  and  _185
REMARK   78  A    between atoms: _185  and  _186
REMARK   79  A    between atoms: _192  and  _194
REMARK   80  A    between atoms: _194  and  _195
REMARK   81  A    between atoms: _194  and  _197
REMARK   82  A    between atoms: _197  and  _198
REMARK   83  A    between atoms: _198  and  _199
REMARK   84  A    between atoms: _202  and  _204
REMARK   85  A    between atoms: _204  and  _205
REMARK   86  A    between atoms: _204  and  _207
REMARK   87  A    between atoms: _207  and  _208
REMARK   88  A    between atoms: _211  and  _213
REMARK   89  A    between atoms: _213  and  _214
REMARK   90  A    between atoms: _213  and  _216
REMARK   91  A    between atoms: _216  and  _217
REMARK   92  A    between atoms: _220  and  _222
REMARK   93  A    between atoms: _222  and  _223
REMARK   94  A    between atoms: _225  and  _227
REMARK   95  A    between atoms: _227  and  _228
REMARK   96  A    between atoms: _230  and  _232
REMARK   97  A    between atoms: _232  and  _233
REMARK   98  A    between atoms: _235  and  _237
REMARK   99  A    between atoms: _237  and  _238
REMARK  100  A    between atoms: _241  and  _243
REMARK  101  A    between atoms: _243  and  _244
REMARK  102  A    between atoms: _243  and  _246
REMARK  103  A    between atoms: _246  and  _247
REMARK  104  A    between atoms: _253  and  _255
REMARK  105  A    between atoms: _255  and  _256
REMARK  106  A    between atoms: _255  and  _258
REMARK  107  A    between atoms: _258  and  _259
REMARK  108  A    between atoms: _262  and  _264
REMARK  109  A    between atoms: _264  and  _265
REMARK  110  A    between atoms: _264  and  _267
REMARK  111  A    between atoms: _267  and  _268
REMARK  112  A    between atoms: _271  and  _273
REMARK  113  A    between atoms: _273  and  _274
REMARK  114  A    between atoms: _273  and  _276
REMARK  115  A    between atoms: _276  and  _277
REMARK  116  A    between atoms: _280  and  _282
REMARK  117  A    between atoms: _282  and  _283
REMARK  118  A    between atoms: _282  and  _285
REMARK  119  A    between atoms: _285  and  _286
REMARK  120  A    between atoms: _289  and  _291
REMARK  121  A    between atoms: _291  and  _292
REMARK  122  A    between atoms: _294  and  _296
REMARK  123  A    between atoms: _296  and  _297
REMARK  124  A    between atoms: _299  and  _301
REMARK  125  A    between atoms: _301  and  _302
REMARK  126  A    between atoms: _301  and  _304
REMARK  127  A    between atoms: _304  and  _305
REMARK  128  A    between atoms: _305  and  _306
REMARK  129  A    between atoms: _309  and  _311
REMARK  130  A    between atoms: _311  and  _312
REMARK  131  A    between atoms: _311  and  _314
REMARK  132  A    between atoms: _314  and  _315
REMARK  133  A    between atoms: _318  and  _320
REMARK  134  A    between atoms: _320  and  _321
REMARK  135  A    between atoms: _320  and  _323
REMARK  136  A    between atoms: _323  and  _324
REMARK  137  A    between atoms: _330  and  _332
REMARK  138  A    between atoms: _332  and  _333
REMARK  139  A    between atoms: _332  and  _335
REMARK  140  A    between atoms: _335  and  _336
REMARK  141  A    between atoms: _339  and  _341
REMARK  142  A    between atoms: _341  and  _342
REMARK  143  A    between atoms: _341  and  _344
REMARK  144  A    between atoms: _344  and  _345
REMARK  145  A    between atoms: _345  and  _346
REMARK  146  A    between atoms: _346  and  _347
REMARK  147  A    between atoms: _347  and  _348
REMARK  148  A    between atoms: _352  and  _354
REMARK  149  A    between atoms: _354  and  _355
REMARK  150  A    between atoms: _358  and  _360
REMARK  151  A    between atoms: _360  and  _361
REMARK  152  A    between atoms: _360  and  _363
REMARK  153  A    between atoms: _363  and  _364
REMARK  154  A    between atoms: _364  and  _365
REMARK  155  A    between atoms: _368  and  _370
REMARK  156  A    between atoms: _370  and  _371
REMARK  157  A    between atoms: _370  and  _373
REMARK  158  A    between atoms: _373  and  _374
REMARK  159  A    between atoms: _374  and  _375
REMARK  160  A    between atoms: _375  and  _376
REMARK  161  A    between atoms: _376  and  _377
REMARK  162  A    between atoms: _381  and  _383
REMARK  163  A    between atoms: _383  and  _384
REMARK  164  A    between atoms: _387  and  _389
REMARK  165  A    between atoms: _389  and  _390
REMARK  166  A    between atoms: _389  and  _392
REMARK  167  A    between atoms: _392  and  _393
REMARK  168  A    between atoms: _393  and  _394
REMARK  169  A    between atoms: _394  and  _395
REMARK  170  A    between atoms: _395  and  _396
REMARK  171  A    between atoms: _400  and  _402
REMARK  172  A    between atoms: _402  and  _403
REMARK  173  A    between atoms: _402  and  _405
REMARK  174  A    between atoms: _405  and  _406
REMARK  175  A    between atoms: _409  and  _411
REMARK  176  A    between atoms: _411  and  _412
REMARK  177  A    between atoms: _411  and  _414
REMARK  178  A    between atoms: _414  and  _415
REMARK  179  A    between atoms: _415  and  _416
REMARK  180  A    between atoms: _419  and  _421
REMARK  181  A    between atoms: _421  and  _422
REMARK  182  A    between atoms: _421  and  _424
REMARK  183  A    between atoms: _424  and  _425
REMARK  184  A    between atoms: _428  and  _430
REMARK  185  A    between atoms: _430  and  _431
REMARK  186  A    between atoms: _430  and  _433
REMARK  187  A    between atoms: _433  and  _434
REMARK  188  A    between atoms: _436  and  _438
REMARK  189  A    between atoms: _438  and  _439
REMARK  190  A    between atoms: _438  and  _441
REMARK  191  A    between atoms: _441  and  _442
REMARK  192  A    between atoms: _444  and  _446
REMARK  193  A    between atoms: _446  and  _447
REMARK  194  A    between atoms: _450  and  _452
REMARK  195  A    between atoms: _452  and  _453
REMARK  196  A    between atoms: _452  and  _455
REMARK  197  A    between atoms: _455  and  _456
REMARK  198  A    between atoms: _459  and  _461
REMARK  199  A    between atoms: _461  and  _462
REMARK  200  A    between atoms: _461  and  _464
REMARK  201  A    between atoms: _467  and  _469
REMARK  202  A    between atoms: _469  and  _470
REMARK  203  A    between atoms: _472  and  _474
REMARK  204  A    between atoms: _474  and  _475
REMARK  205  A    between atoms: _477  and  _479
REMARK  206  A    between atoms: _479  and  _480
REMARK  207  A    between atoms: _479  and  _482
REMARK  208  A    between atoms: _482  and  _483
REMARK  209  A    between atoms: _483  and  _484
REMARK  210  A    between atoms: _489  and  _491
REMARK  211  A    between atoms: _491  and  _492
REMARK  212  A    between atoms: _491  and  _494
REMARK  213  A    between atoms: _494  and  _495
REMARK  214  A    between atoms: _498  and  _500
REMARK  215  A    between atoms: _500  and  _501
REMARK  216  A    between atoms: _500  and  _503
REMARK  217  A    between atoms: _503  and  _504
REMARK  218  A    between atoms: _504  and  _505
REMARK  219  A    between atoms: _505  and  _506
REMARK  220  A    between atoms: _515  and  _517
REMARK  221  A    between atoms: _517  and  _518
REMARK  222  A    between atoms: _517  and  _520
REMARK  223  A    between atoms: _520  and  _521
REMARK  224  A    between atoms: _521  and  _522
REMARK  225  A    between atoms: _525  and  _526
REMARK  226  A    between atoms: _531  and  _533
REMARK  227  A    between atoms: _533  and  _534
REMARK  228  A    between atoms: _533  and  _536
REMARK  229  A    between atoms: _539  and  _541
REMARK  230  A    between atoms: _541  and  _542
REMARK  231  A    between atoms: _541  and  _544
REMARK  232  A    between atoms: _544  and  _545
REMARK  233  A    between atoms: _545  and  _546
REMARK  234  A    between atoms: _552  and  _553
REMARK  235  A    between atoms: _558  and  _560
REMARK  236  A    between atoms: _560  and  _561
REMARK  237  A    between atoms: _560  and  _563
REMARK  238  A    between atoms: _563  and  _564
REMARK  239  A    between atoms: _567  and  _569
REMARK  240  A    between atoms: _569  and  _570
REMARK  241  A    between atoms: _569  and  _572
REMARK  242  A    between atoms: _572  and  _573
REMARK  243  A    between atoms: _573  and  _574
REMARK  244  A    between atoms: _577  and  _579
REMARK  245  A    between atoms: _579  and  _580
REMARK  246  A    between atoms: _579  and  _582
REMARK  247  A    between atoms: _585  and  _587
REMARK  248  A    between atoms: _587  and  _588
REMARK  249  A    between atoms: _591  and  _593
REMARK  250  A    between atoms: _593  and  _594
REMARK  251  A    between atoms: _593  and  _596
REMARK  252  A    between atoms: _596  and  _597
REMARK  253  A    between atoms: _597  and  _598
REMARK  254  A    between atoms: _601  and  _603
REMARK  255  A    between atoms: _603  and  _604
REMARK  256  A    between atoms: _606  and  _608
REMARK  257  A    between atoms: _608  and  _609
REMARK  258  A    between atoms: _608  and  _611
REMARK  259  A    between atoms: _611  and  _612
REMARK                            x       y       z     vdW  Elec       q    Type
REMARK                         _______ _______ _______ _____ _____    ______ ____
ROOT
ATOM      1  O   HOH     1      17.347  82.435  22.960  0.00  0.00    +0.000 OA
ENDROOT
TORSDOF 0
REMARK  Name = ../refined-set-2016/4jne/4jne_pocket.pdb
REMARK  259 active torsions:
REMARK  status: ('A' for Active; 'I' for Inactive)
REMARK    1  A    between atoms: _1  and  _3
REMARK    2  A    between atoms: _3  and  _4
REMARK    3  A    between atoms: _3  and  _6
REMARK    4  A    between atoms: _6  and  _7
REMARK    5  A    between atoms: _10  and  _12
REMARK    6  A    between atoms: _12  and  _13
REMARK    7  A    between atoms: _12  and  _15
REMARK    8  A    between atoms: _15  and  _16
REMARK    9  A    between atoms: _19  and  _21
REMARK   10  A    between atoms: _21  and  _22
REMARK   11  A    between atoms: _24  and  _26
REMARK   12  A    between atoms: _26  and  _27
REMARK   13  A    between atoms: _26  and  _29
REMARK   14  A    between atoms: _29  and  _30
REMARK   15  A    between atoms: _33  and  _35
REMARK   16  A    between atoms: _35  and  _36
REMARK   17  A    between atoms: _35  and  _38
REMARK   18  A    between atoms: _38  and  _39
REMARK   19  A    between atoms: _42  and  _44
REMARK   20  A    between atoms: _44  and  _45
REMARK   21  A    between atoms: _44  and  _47
REMARK   22  A    between atoms: _47  and  _48
REMARK   23  A    between atoms: _53  and  _55
REMARK   24  A    between atoms: _55  and  _56
REMARK   25  A    between atoms: _55  and  _58
REMARK   26  A    between atoms: _58  and  _59
REMARK   27  A    between atoms: _61  and  _63
REMARK   28  A    between atoms: _63  and  _64
REMARK   29  A    between atoms: _63  and  _66
REMARK   30  A    between atoms: _68  and  _70
REMARK   31  A    between atoms: _70  and  _71
REMARK   32  A    between atoms: _70  and  _73
REMARK   33  A    between atoms: _73  and  _74
REMARK   34  A    between atoms: _77  and  _79
REMARK   35  A    between atoms: _79  and  _80
REMARK   36  A    between atoms: _79  and  _82
REMARK   37  A    between atoms: _82  and  _83
REMARK   38  A    between atoms: _87  and  _88
REMARK   39  A    between atoms: _93  and  _95
REMARK   40  A    between atoms: _95  and  _96
REMARK   41  A    between atoms: _95  and  _98
REMARK   42  A    between atoms: _98  and  _99
REMARK   43  A    between atoms: _101  and  _103
REMARK   44  A    between atoms: _103  and  _104
REMARK   45  A    between atoms: _103  and  _106
REMARK   46  A    between atoms: _106  and  _107
REMARK   47  A    between atoms: _107  and  _108
REMARK   48  A    between atoms: _108  and  _109
REMARK   49  A    between atoms: _109  and  _110
REMARK   50  A    between atoms: _114  and  _116
REMARK   51  A    between atoms: _116  and  _117
REMARK   52  A    between atoms: _120  and  _122
REMARK   53  A    between atoms: _122  and  _123
REMARK   54  A    between atoms: _122  and  _125
REMARK   55  A    between atoms: _125  and  _126
REMARK   56  A    between atoms: _126  and  _127
REMARK   57  A    between atoms: _127  and  _128
REMARK   58  A    between atoms: _128  and  _129
REMARK   59  A    between atoms: _133  and  _135
REMARK   60  A    between atoms: _135  and  _136
REMARK   61  A    between atoms: _135  and  _138
REMARK   62  A    between atoms: _138  and  _139
REMARK   63  A    between atoms: _139  and  _140
REMARK   64  A    between atoms: _140  and  _141
REMARK   65  A    between atoms: _150  and  _152
REMARK   66  A    between atoms: _152  and  _153
REMARK   67  A    between atoms: _152  and  _155
REMARK   68  A    between atoms: _155  and  _156
REMARK   69  A    between atoms: _159  and  _161
REMARK   70  A    between atoms: _161  and  _162
REMARK   71  A    between atoms: _161  and  _164
REMARK   72  A    between atoms: _168  and  _169
REMARK   73  A    between atoms: _174  and  _176
REMARK   74  A    between atoms: _176  and  _177
REMARK   75  A    between atoms: _180  and  _182
REMARK   76  A    between atoms: _182  and  _183
REMARK   77  A    between atoms: _182  and  _185
REMARK   78  A    between atoms: _185  and  _186
REMARK   79  A    between atoms: _192  and  _194
REMARK   80  A    between atoms: _194  and  _195
REMARK   81  A    between atoms: _194  and  _197
REMARK   82  A    between atoms: _197  and  _198
REMARK   83  A    between atoms: _198  and  _199
REMARK   84  A    between atoms: _202  and  _204
REMARK   85  A    between atoms: _204  and  _205
REMARK   86  A    between atoms: _204  and  _207
REMARK   87  A    between atoms: _207  and  _208
REMARK   88  A    between atoms: _211  and  _213
REMARK   89  A    between atoms: _213  and  _214
REMARK   90  A    between atoms: _213  and  _216
REMARK   91  A    between atoms: _216  and  _217
REMARK   92  A    between atoms: _220  and  _222
REMARK   93  A    between atoms: _222  and  _223
REMARK   94  A    between atoms: _225  and  _227
REMARK   95  A    between atoms: _227  and  _228
REMARK   96  A    between atoms: _230  and  _232
REMARK   97  A    between atoms: _232  and  _233
REMARK   98  A    between atoms: _235  and  _237
REMARK   99  A    between atoms: _237  and  _238
REMARK  100  A    between atoms: _241  and  _243
REMARK  101  A    between atoms: _243  and  _244
REMARK  102  A    between atoms: _243  and  _246
REMARK  103  A    between atoms: _246  and  _247
REMARK  104  A    between atoms: _253  and  _255
REMARK  105  A    between atoms: _255  and  _256
REMARK  106  A    between atoms: _255  and  _258
REMARK  107  A    between atoms: _258  and  _259
REMARK  108  A    between atoms: _262  and  _264
REMARK  109  A    between atoms: _264  and  _265
REMARK  110  A    between atoms: _264  and  _267
REMARK  111  A    between atoms: _267  and  _268
REMARK  112  A    between atoms: _271  and  _273
REMARK  113  A    between atoms: _273  and  _274
REMARK  114  A    between atoms: _273  and  _276
REMARK  115  A    between atoms: _276  and  _277
REMARK  116  A    between atoms: _280  and  _282
REMARK  117  A    between atoms: _282  and  _283
REMARK  118  A    between atoms: _282  and  _285
REMARK  119  A    between atoms: _285  and  _286
REMARK  120  A    between atoms: _289  and  _291
REMARK  121  A    between atoms: _291  and  _292
REMARK  122  A    between atoms: _294  and  _296
REMARK  123  A    between atoms: _296  and  _297
REMARK  124  A    between atoms: _299  and  _301
REMARK  125  A    between atoms: _301  and  _302
REMARK  126  A    between atoms: _301  and  _304
REMARK  127  A    between atoms: _304  and  _305
REMARK  128  A    between atoms: _305  and  _306
REMARK  129  A    between atoms: _309  and  _311
REMARK  130  A    between atoms: _311  and  _312
REMARK  131  A    between atoms: _311  and  _314
REMARK  132  A    between atoms: _314  and  _315
REMARK  133  A    between atoms: _318  and  _320
REMARK  134  A    between atoms: _320  and  _321
REMARK  135  A    between atoms: _320  and  _323
REMARK  136  A    between atoms: _323  and  _324
REMARK  137  A    between atoms: _330  and  _332
REMARK  138  A    between atoms: _332  and  _333
REMARK  139  A    between atoms: _332  and  _335
REMARK  140  A    between atoms: _335  and  _336
REMARK  141  A    between atoms: _339  and  _341
REMARK  142  A    between atoms: _341  and  _342
REMARK  143  A    between atoms: _341  and  _344
REMARK  144  A    between atoms: _344  and  _345
REMARK  145  A    between atoms: _345  and  _346
REMARK  146  A    between atoms: _346  and  _347
REMARK  147  A    between atoms: _347  and  _348
REMARK  148  A    between atoms: _352  and  _354
REMARK  149  A    between atoms: _354  and  _355
REMARK  150  A    between atoms: _358  and  _360
REMARK  151  A    between atoms: _360  and  _361
REMARK  152  A    between atoms: _360  and  _363
REMARK  153  A    between atoms: _363  and  _364
REMARK  154  A    between atoms: _364  and  _365
REMARK  155  A    between atoms: _368  and  _370
REMARK  156  A    between atoms: _370  and  _371
REMARK  157  A    between atoms: _370  and  _373
REMARK  158  A    between atoms: _373  and  _374
REMARK  159  A    between atoms: _374  and  _375
REMARK  160  A    between atoms: _375  and  _376
REMARK  161  A    between atoms: _376  and  _377
REMARK  162  A    between atoms: _381  and  _383
REMARK  163  A    between atoms: _383  and  _384
REMARK  164  A    between atoms: _387  and  _389
REMARK  165  A    between atoms: _389  and  _390
REMARK  166  A    between atoms: _389  and  _392
REMARK  167  A    between atoms: _392  and  _393
REMARK  168  A    between atoms: _393  and  _394
REMARK  169  A    between atoms: _394  and  _395
REMARK  170  A    between atoms: _395  and  _396
REMARK  171  A    between atoms: _400  and  _402
REMARK  172  A    between atoms: _402  and  _403
REMARK  173  A    between atoms: _402  and  _405
REMARK  174  A    between atoms: _405  and  _406
REMARK  175  A    between atoms: _409  and  _411
REMARK  176  A    between atoms: _411  and  _412
REMARK  177  A    between atoms: _411  and  _414
REMARK  178  A    between atoms: _414  and  _415
REMARK  179  A    between atoms: _415  and  _416
REMARK  180  A    between atoms: _419  and  _421
REMARK  181  A    between atoms: _421  and  _422
REMARK  182  A    between atoms: _421  and  _424
REMARK  183  A    between atoms: _424  and  _425
REMARK  184  A    between atoms: _428  and  _430
REMARK  185  A    between atoms: _430  and  _431
REMARK  186  A    between atoms: _430  and  _433
REMARK  187  A    between atoms: _433  and  _434
REMARK  188  A    between atoms: _436  and  _438
REMARK  189  A    between atoms: _438  and  _439
REMARK  190  A    between atoms: _438  and  _441
REMARK  191  A    between atoms: _441  and  _442
REMARK  192  A    between atoms: _444  and  _446
REMARK  193  A    between atoms: _446  and  _447
REMARK  194  A    between atoms: _450  and  _452
REMARK  195  A    between atoms: _452  and  _453
REMARK  196  A    between atoms: _452  and  _455
REMARK  197  A    between atoms: _455  and  _456
REMARK  198  A    between atoms: _459  and  _461
REMARK  199  A    between atoms: _461  and  _462
REMARK  200  A    between atoms: _461  and  _464
REMARK  201  A    between atoms: _467  and  _469
REMARK  202  A    between atoms: _469  and  _470
REMARK  203  A    between atoms: _472  and  _474
REMARK  204  A    between atoms: _474  and  _475
REMARK  205  A    between atoms: _477  and  _479
REMARK  206  A    between atoms: _479  and  _480
REMARK  207  A    between atoms: _479  and  _482
REMARK  208  A    between atoms: _482  and  _483
REMARK  209  A    between atoms: _483  and  _484
REMARK  210  A    between atoms: _489  and  _491
REMARK  211  A    between atoms: _491  and  _492
REMARK  212  A    between atoms: _491  and  _494
REMARK  213  A    between atoms: _494  and  _495
REMARK  214  A    between atoms: _498  and  _500
REMARK  215  A    between atoms: _500  and  _501
REMARK  216  A    between atoms: _500  and  _503
REMARK  217  A    between atoms: _503  and  _504
REMARK  218  A    between atoms: _504  and  _505
REMARK  219  A    between atoms: _505  and  _506
REMARK  220  A    between atoms: _515  and  _517
REMARK  221  A    between atoms: _517  and  _518
REMARK  222  A    between atoms: _517  and  _520
REMARK  223  A    between atoms: _520  and  _521
REMARK  224  A    between atoms: _521  and  _522
REMARK  225  A    between atoms: _525  and  _526
REMARK  226  A    between atoms: _531  and  _533
REMARK  227  A    between atoms: _533  and  _534
REMARK  228  A    between atoms: _533  and  _536
REMARK  229  A    between atoms: _539  and  _541
REMARK  230  A    between atoms: _541  and  _542
REMARK  231  A    between atoms: _541  and  _544
REMARK  232  A    between atoms: _544  and  _545
REMARK  233  A    between atoms: _545  and  _546
REMARK  234  A    between atoms: _552  and  _553
REMARK  235  A    between atoms: _558  and  _560
REMARK  236  A    between atoms: _560  and  _561
REMARK  237  A    between atoms: _560  and  _563
REMARK  238  A    between atoms: _563  and  _564
REMARK  239  A    between atoms: _567  and  _569
REMARK  240  A    between atoms: _569  and  _570
REMARK  241  A    between atoms: _569  and  _572
REMARK  242  A    between atoms: _572  and  _573
REMARK  243  A    between atoms: _573  and  _574
REMARK  244  A    between atoms: _577  and  _579
REMARK  245  A    between atoms: _579  and  _580
REMARK  246  A    between atoms: _579  and  _582
REMARK  247  A    between atoms: _585  and  _587
REMARK  248  A    between atoms: _587  and  _588
REMARK  249  A    between atoms: _591  and  _593
REMARK  250  A    between atoms: _593  and  _594
REMARK  251  A    between atoms: _593  and  _596
REMARK  252  A    between atoms: _596  and  _597
REMARK  253  A    between atoms: _597  and  _598
REMARK  254  A    between atoms: _601  and  _603
REMARK  255  A    between atoms: _603  and  _604
REMARK  256  A    between atoms: _606  and  _608
REMARK  257  A    between atoms: _608  and  _609
REMARK  258  A    between atoms: _608  and  _611
REMARK  259  A    between atoms: _611  and  _612
REMARK                            x       y       z     vdW  Elec       q    Type
REMARK                         _______ _______ _______ _____ _____    ______ ____
ROOT
ATOM      1  O   HOH     1       9.835  79.519  20.386  0.00  0.00    +0.000 OA
ENDROOT
TORSDOF 0
REMARK  Name = ../refined-set-2016/4jne/4jne_pocket.pdb
REMARK  259 active torsions:
REMARK  status: ('A' for Active; 'I' for Inactive)
REMARK    1  A    between atoms: _1  and  _3
REMARK    2  A    between atoms: _3  and  _4
REMARK    3  A    between atoms: _3  and  _6
REMARK    4  A    between atoms: _6  and  _7
REMARK    5  A    between atoms: _10  and  _12
REMARK    6  A    between atoms: _12  and  _13
REMARK    7  A    between atoms: _12  and  _15
REMARK    8  A    between atoms: _15  and  _16
REMARK    9  A    between atoms: _19  and  _21
REMARK   10  A    between atoms: _21  and  _22
REMARK   11  A    between atoms: _24  and  _26
REMARK   12  A    between atoms: _26  and  _27
REMARK   13  A    between atoms: _26  and  _29
REMARK   14  A    between atoms: _29  and  _30
REMARK   15  A    between atoms: _33  and  _35
REMARK   16  A    between atoms: _35  and  _36
REMARK   17  A    between atoms: _35  and  _38
REMARK   18  A    between atoms: _38  and  _39
REMARK   19  A    between atoms: _42  and  _44
REMARK   20  A    between atoms: _44  and  _45
REMARK   21  A    between atoms: _44  and  _47
REMARK   22  A    between atoms: _47  and  _48
REMARK   23  A    between atoms: _53  and  _55
REMARK   24  A    between atoms: _55  and  _56
REMARK   25  A    between atoms: _55  and  _58
REMARK   26  A    between atoms: _58  and  _59
REMARK   27  A    between atoms: _61  and  _63
REMARK   28  A    between atoms: _63  and  _64
REMARK   29  A    between atoms: _63  and  _66
REMARK   30  A    between atoms: _68  and  _70
REMARK   31  A    between atoms: _70  and  _71
REMARK   32  A    between atoms: _70  and  _73
REMARK   33  A    between atoms: _73  and  _74
REMARK   34  A    between atoms: _77  and  _79
REMARK   35  A    between atoms: _79  and  _80
REMARK   36  A    between atoms: _79  and  _82
REMARK   37  A    between atoms: _82  and  _83
REMARK   38  A    between atoms: _87  and  _88
REMARK   39  A    between atoms: _93  and  _95
REMARK   40  A    between atoms: _95  and  _96
REMARK   41  A    between atoms: _95  and  _98
REMARK   42  A    between atoms: _98  and  _99
REMARK   43  A    between atoms: _101  and  _103
REMARK   44  A    between atoms: _103  and  _104
REMARK   45  A    between atoms: _103  and  _106
REMARK   46  A    between atoms: _106  and  _107
REMARK   47  A    between atoms: _107  and  _108
REMARK   48  A    between atoms: _108  and  _109
REMARK   49  A    between atoms: _109  and  _110
REMARK   50  A    between atoms: _114  and  _116
REMARK   51  A    between atoms: _116  and  _117
REMARK   52  A    between atoms: _120  and  _122
REMARK   53  A    between atoms: _122  and  _123
REMARK   54  A    between atoms: _122  and  _125
REMARK   55  A    between atoms: _125  and  _126
REMARK   56  A    between atoms: _126  and  _127
REMARK   57  A    between atoms: _127  and  _128
REMARK   58  A    between atoms: _128  and  _129
REMARK   59  A    between atoms: _133  and  _135
REMARK   60  A    between atoms: _135  and  _136
REMARK   61  A    between atoms: _135  and  _138
REMARK   62  A    between atoms: _138  and  _139
REMARK   63  A    between atoms: _139  and  _140
REMARK   64  A    between atoms: _140  and  _141
REMARK   65  A    between atoms: _150  and  _152
REMARK   66  A    between atoms: _152  and  _153
REMARK   67  A    between atoms: _152  and  _155
REMARK   68  A    between atoms: _155  and  _156
REMARK   69  A    between atoms: _159  and  _161
REMARK   70  A    between atoms: _161  and  _162
REMARK   71  A    between atoms: _161  and  _164
REMARK   72  A    between atoms: _168  and  _169
REMARK   73  A    between atoms: _174  and  _176
REMARK   74  A    between atoms: _176  and  _177
REMARK   75  A    between atoms: _180  and  _182
REMARK   76  A    between atoms: _182  and  _183
REMARK   77  A    between atoms: _182  and  _185
REMARK   78  A    between atoms: _185  and  _186
REMARK   79  A    between atoms: _192  and  _194
REMARK   80  A    between atoms: _194  and  _195
REMARK   81  A    between atoms: _194  and  _197
REMARK   82  A    between atoms: _197  and  _198
REMARK   83  A    between atoms: _198  and  _199
REMARK   84  A    between atoms: _202  and  _204
REMARK   85  A    between atoms: _204  and  _205
REMARK   86  A    between atoms: _204  and  _207
REMARK   87  A    between atoms: _207  and  _208
REMARK   88  A    between atoms: _211  and  _213
REMARK   89  A    between atoms: _213  and  _214
REMARK   90  A    between atoms: _213  and  _216
REMARK   91  A    between atoms: _216  and  _217
REMARK   92  A    between atoms: _220  and  _222
REMARK   93  A    between atoms: _222  and  _223
REMARK   94  A    between atoms: _225  and  _227
REMARK   95  A    between atoms: _227  and  _228
REMARK   96  A    between atoms: _230  and  _232
REMARK   97  A    between atoms: _232  and  _233
REMARK   98  A    between atoms: _235  and  _237
REMARK   99  A    between atoms: _237  and  _238
REMARK  100  A    between atoms: _241  and  _243
REMARK  101  A    between atoms: _243  and  _244
REMARK  102  A    between atoms: _243  and  _246
REMARK  103  A    between atoms: _246  and  _247
REMARK  104  A    between atoms: _253  and  _255
REMARK  105  A    between atoms: _255  and  _256
REMARK  106  A    between atoms: _255  and  _258
REMARK  107  A    between atoms: _258  and  _259
REMARK  108  A    between atoms: _262  and  _264
REMARK  109  A    between atoms: _264  and  _265
REMARK  110  A    between atoms: _264  and  _267
REMARK  111  A    between atoms: _267  and  _268
REMARK  112  A    between atoms: _271  and  _273
REMARK  113  A    between atoms: _273  and  _274
REMARK  114  A    between atoms: _273  and  _276
REMARK  115  A    between atoms: _276  and  _277
REMARK  116  A    between atoms: _280  and  _282
REMARK  117  A    between atoms: _282  and  _283
REMARK  118  A    between atoms: _282  and  _285
REMARK  119  A    between atoms: _285  and  _286
REMARK  120  A    between atoms: _289  and  _291
REMARK  121  A    between atoms: _291  and  _292
REMARK  122  A    between atoms: _294  and  _296
REMARK  123  A    between atoms: _296  and  _297
REMARK  124  A    between atoms: _299  and  _301
REMARK  125  A    between atoms: _301  and  _302
REMARK  126  A    between atoms: _301  and  _304
REMARK  127  A    between atoms: _304  and  _305
REMARK  128  A    between atoms: _305  and  _306
REMARK  129  A    between atoms: _309  and  _311
REMARK  130  A    between atoms: _311  and  _312
REMARK  131  A    between atoms: _311  and  _314
REMARK  132  A    between atoms: _314  and  _315
REMARK  133  A    between atoms: _318  and  _320
REMARK  134  A    between atoms: _320  and  _321
REMARK  135  A    between atoms: _320  and  _323
REMARK  136  A    between atoms: _323  and  _324
REMARK  137  A    between atoms: _330  and  _332
REMARK  138  A    between atoms: _332  and  _333
REMARK  139  A    between atoms: _332  and  _335
REMARK  140  A    between atoms: _335  and  _336
REMARK  141  A    between atoms: _339  and  _341
REMARK  142  A    between atoms: _341  and  _342
REMARK  143  A    between atoms: _341  and  _344
REMARK  144  A    between atoms: _344  and  _345
REMARK  145  A    between atoms: _345  and  _346
REMARK  146  A    between atoms: _346  and  _347
REMARK  147  A    between atoms: _347  and  _348
REMARK  148  A    between atoms: _352  and  _354
REMARK  149  A    between atoms: _354  and  _355
REMARK  150  A    between atoms: _358  and  _360
REMARK  151  A    between atoms: _360  and  _361
REMARK  152  A    between atoms: _360  and  _363
REMARK  153  A    between atoms: _363  and  _364
REMARK  154  A    between atoms: _364  and  _365
REMARK  155  A    between atoms: _368  and  _370
REMARK  156  A    between atoms: _370  and  _371
REMARK  157  A    between atoms: _370  and  _373
REMARK  158  A    between atoms: _373  and  _374
REMARK  159  A    between atoms: _374  and  _375
REMARK  160  A    between atoms: _375  and  _376
REMARK  161  A    between atoms: _376  and  _377
REMARK  162  A    between atoms: _381  and  _383
REMARK  163  A    between atoms: _383  and  _384
REMARK  164  A    between atoms: _387  and  _389
REMARK  165  A    between atoms: _389  and  _390
REMARK  166  A    between atoms: _389  and  _392
REMARK  167  A    between atoms: _392  and  _393
REMARK  168  A    between atoms: _393  and  _394
REMARK  169  A    between atoms: _394  and  _395
REMARK  170  A    between atoms: _395  and  _396
REMARK  171  A    between atoms: _400  and  _402
REMARK  172  A    between atoms: _402  and  _403
REMARK  173  A    between atoms: _402  and  _405
REMARK  174  A    between atoms: _405  and  _406
REMARK  175  A    between atoms: _409  and  _411
REMARK  176  A    between atoms: _411  and  _412
REMARK  177  A    between atoms: _411  and  _414
REMARK  178  A    between atoms: _414  and  _415
REMARK  179  A    between atoms: _415  and  _416
REMARK  180  A    between atoms: _419  and  _421
REMARK  181  A    between atoms: _421  and  _422
REMARK  182  A    between atoms: _421  and  _424
REMARK  183  A    between atoms: _424  and  _425
REMARK  184  A    between atoms: _428  and  _430
REMARK  185  A    between atoms: _430  and  _431
REMARK  186  A    between atoms: _430  and  _433
REMARK  187  A    between atoms: _433  and  _434
REMARK  188  A    between atoms: _436  and  _438
REMARK  189  A    between atoms: _438  and  _439
REMARK  190  A    between atoms: _438  and  _441
REMARK  191  A    between atoms: _441  and  _442
REMARK  192  A    between atoms: _444  and  _446
REMARK  193  A    between atoms: _446  and  _447
REMARK  194  A    between atoms: _450  and  _452
REMARK  195  A    between atoms: _452  and  _453
REMARK  196  A    between atoms: _452  and  _455
REMARK  197  A    between atoms: _455  and  _456
REMARK  198  A    between atoms: _459  and  _461
REMARK  199  A    between atoms: _461  and  _462
REMARK  200  A    between atoms: _461  and  _464
REMARK  201  A    between atoms: _467  and  _469
REMARK  202  A    between atoms: _469  and  _470
REMARK  203  A    between atoms: _472  and  _474
REMARK  204  A    between atoms: _474  and  _475
REMARK  205  A    between atoms: _477  and  _479
REMARK  206  A    between atoms: _479  and  _480
REMARK  207  A    between atoms: _479  and  _482
REMARK  208  A    between atoms: _482  and  _483
REMARK  209  A    between atoms: _483  and  _484
REMARK  210  A    between atoms: _489  and  _491
REMARK  211  A    between atoms: _491  and  _492
REMARK  212  A    between atoms: _491  and  _494
REMARK  213  A    between atoms: _494  and  _495
REMARK  214  A    between atoms: _498  and  _500
REMARK  215  A    between atoms: _500  and  _501
REMARK  216  A    between atoms: _500  and  _503
REMARK  217  A    between atoms: _503  and  _504
REMARK  218  A    between atoms: _504  and  _505
REMARK  219  A    between atoms: _505  and  _506
REMARK  220  A    between atoms: _515  and  _517
REMARK  221  A    between atoms: _517  and  _518
REMARK  222  A    between atoms: _517  and  _520
REMARK  223  A    between atoms: _520  and  _521
REMARK  224  A    between atoms: _521  and  _522
REMARK  225  A    between atoms: _525  and  _526
REMARK  226  A    between atoms: _531  and  _533
REMARK  227  A    between atoms: _533  and  _534
REMARK  228  A    between atoms: _533  and  _536
REMARK  229  A    between atoms: _539  and  _541
REMARK  230  A    between atoms: _541  and  _542
REMARK  231  A    between atoms: _541  and  _544
REMARK  232  A    between atoms: _544  and  _545
REMARK  233  A    between atoms: _545  and  _546
REMARK  234  A    between atoms: _552  and  _553
REMARK  235  A    between atoms: _558  and  _560
REMARK  236  A    between atoms: _560  and  _561
REMARK  237  A    between atoms: _560  and  _563
REMARK  238  A    between atoms: _563  and  _564
REMARK  239  A    between atoms: _567  and  _569
REMARK  240  A    between atoms: _569  and  _570
REMARK  241  A    between atoms: _569  and  _572
REMARK  242  A    between atoms: _572  and  _573
REMARK  243  A    between atoms: _573  and  _574
REMARK  244  A    between atoms: _577  and  _579
REMARK  245  A    between atoms: _579  and  _580
REMARK  246  A    between atoms: _579  and  _582
REMARK  247  A    between atoms: _585  and  _587
REMARK  248  A    between atoms: _587  and  _588
REMARK  249  A    between atoms: _591  and  _593
REMARK  250  A    between atoms: _593  and  _594
REMARK  251  A    between atoms: _593  and  _596
REMARK  252  A    between atoms: _596  and  _597
REMARK  253  A    between atoms: _597  and  _598
REMARK  254  A    between atoms: _601  and  _603
REMARK  255  A    between atoms: _603  and  _604
REMARK  256  A    between atoms: _606  and  _608
REMARK  257  A    between atoms: _608  and  _609
REMARK  258  A    between atoms: _608  and  _611
REMARK  259  A    between atoms: _611  and  _612
REMARK                            x       y       z     vdW  Elec       q    Type
REMARK                         _______ _______ _______ _____ _____    ______ ____
ROOT
ATOM      1  O   HOH     1      21.873  79.948  38.970  0.00  0.00    +0.000 OA
ENDROOT
TORSDOF 0
REMARK  Name = ../refined-set-2016/4jne/4jne_pocket.pdb
REMARK  259 active torsions:
REMARK  status: ('A' for Active; 'I' for Inactive)
REMARK    1  A    between atoms: _1  and  _3
REMARK    2  A    between atoms: _3  and  _4
REMARK    3  A    between atoms: _3  and  _6
REMARK    4  A    between atoms: _6  and  _7
REMARK    5  A    between atoms: _10  and  _12
REMARK    6  A    between atoms: _12  and  _13
REMARK    7  A    between atoms: _12  and  _15
REMARK    8  A    between atoms: _15  and  _16
REMARK    9  A    between atoms: _19  and  _21
REMARK   10  A    between atoms: _21  and  _22
REMARK   11  A    between atoms: _24  and  _26
REMARK   12  A    between atoms: _26  and  _27
REMARK   13  A    between atoms: _26  and  _29
REMARK   14  A    between atoms: _29  and  _30
REMARK   15  A    between atoms: _33  and  _35
REMARK   16  A    between atoms: _35  and  _36
REMARK   17  A    between atoms: _35  and  _38
REMARK   18  A    between atoms: _38  and  _39
REMARK   19  A    between atoms: _42  and  _44
REMARK   20  A    between atoms: _44  and  _45
REMARK   21  A    between atoms: _44  and  _47
REMARK   22  A    between atoms: _47  and  _48
REMARK   23  A    between atoms: _53  and  _55
REMARK   24  A    between atoms: _55  and  _56
REMARK   25  A    between atoms: _55  and  _58
REMARK   26  A    between atoms: _58  and  _59
REMARK   27  A    between atoms: _61  and  _63
REMARK   28  A    between atoms: _63  and  _64
REMARK   29  A    between atoms: _63  and  _66
REMARK   30  A    between atoms: _68  and  _70
REMARK   31  A    between atoms: _70  and  _71
REMARK   32  A    between atoms: _70  and  _73
REMARK   33  A    between atoms: _73  and  _74
REMARK   34  A    between atoms: _77  and  _79
REMARK   35  A    between atoms: _79  and  _80
REMARK   36  A    between atoms: _79  and  _82
REMARK   37  A    between atoms: _82  and  _83
REMARK   38  A    between atoms: _87  and  _88
REMARK   39  A    between atoms: _93  and  _95
REMARK   40  A    between atoms: _95  and  _96
REMARK   41  A    between atoms: _95  and  _98
REMARK   42  A    between atoms: _98  and  _99
REMARK   43  A    between atoms: _101  and  _103
REMARK   44  A    between atoms: _103  and  _104
REMARK   45  A    between atoms: _103  and  _106
REMARK   46  A    between atoms: _106  and  _107
REMARK   47  A    between atoms: _107  and  _108
REMARK   48  A    between atoms: _108  and  _109
REMARK   49  A    between atoms: _109  and  _110
REMARK   50  A    between atoms: _114  and  _116
REMARK   51  A    between atoms: _116  and  _117
REMARK   52  A    between atoms: _120  and  _122
REMARK   53  A    between atoms: _122  and  _123
REMARK   54  A    between atoms: _122  and  _125
REMARK   55  A    between atoms: _125  and  _126
REMARK   56  A    between atoms: _126  and  _127
REMARK   57  A    between atoms: _127  and  _128
REMARK   58  A    between atoms: _128  and  _129
REMARK   59  A    between atoms: _133  and  _135
REMARK   60  A    between atoms: _135  and  _136
REMARK   61  A    between atoms: _135  and  _138
REMARK   62  A    between atoms: _138  and  _139
REMARK   63  A    between atoms: _139  and  _140
REMARK   64  A    between atoms: _140  and  _141
REMARK   65  A    between atoms: _150  and  _152
REMARK   66  A    between atoms: _152  and  _153
REMARK   67  A    between atoms: _152  and  _155
REMARK   68  A    between atoms: _155  and  _156
REMARK   69  A    between atoms: _159  and  _161
REMARK   70  A    between atoms: _161  and  _162
REMARK   71  A    between atoms: _161  and  _164
REMARK   72  A    between atoms: _168  and  _169
REMARK   73  A    between atoms: _174  and  _176
REMARK   74  A    between atoms: _176  and  _177
REMARK   75  A    between atoms: _180  and  _182
REMARK   76  A    between atoms: _182  and  _183
REMARK   77  A    between atoms: _182  and  _185
REMARK   78  A    between atoms: _185  and  _186
REMARK   79  A    between atoms: _192  and  _194
REMARK   80  A    between atoms: _194  and  _195
REMARK   81  A    between atoms: _194  and  _197
REMARK   82  A    between atoms: _197  and  _198
REMARK   83  A    between atoms: _198  and  _199
REMARK   84  A    between atoms: _202  and  _204
REMARK   85  A    between atoms: _204  and  _205
REMARK   86  A    between atoms: _204  and  _207
REMARK   87  A    between atoms: _207  and  _208
REMARK   88  A    between atoms: _211  and  _213
REMARK   89  A    between atoms: _213  and  _214
REMARK   90  A    between atoms: _213  and  _216
REMARK   91  A    between atoms: _216  and  _217
REMARK   92  A    between atoms: _220  and  _222
REMARK   93  A    between atoms: _222  and  _223
REMARK   94  A    between atoms: _225  and  _227
REMARK   95  A    between atoms: _227  and  _228
REMARK   96  A    between atoms: _230  and  _232
REMARK   97  A    between atoms: _232  and  _233
REMARK   98  A    between atoms: _235  and  _237
REMARK   99  A    between atoms: _237  and  _238
REMARK  100  A    between atoms: _241  and  _243
REMARK  101  A    between atoms: _243  and  _244
REMARK  102  A    between atoms: _243  and  _246
REMARK  103  A    between atoms: _246  and  _247
REMARK  104  A    between atoms: _253  and  _255
REMARK  105  A    between atoms: _255  and  _256
REMARK  106  A    between atoms: _255  and  _258
REMARK  107  A    between atoms: _258  and  _259
REMARK  108  A    between atoms: _262  and  _264
REMARK  109  A    between atoms: _264  and  _265
REMARK  110  A    between atoms: _264  and  _267
REMARK  111  A    between atoms: _267  and  _268
REMARK  112  A    between atoms: _271  and  _273
REMARK  113  A    between atoms: _273  and  _274
REMARK  114  A    between atoms: _273  and  _276
REMARK  115  A    between atoms: _276  and  _277
REMARK  116  A    between atoms: _280  and  _282
REMARK  117  A    between atoms: _282  and  _283
REMARK  118  A    between atoms: _282  and  _285
REMARK  119  A    between atoms: _285  and  _286
REMARK  120  A    between atoms: _289  and  _291
REMARK  121  A    between atoms: _291  and  _292
REMARK  122  A    between atoms: _294  and  _296
REMARK  123  A    between atoms: _296  and  _297
REMARK  124  A    between atoms: _299  and  _301
REMARK  125  A    between atoms: _301  and  _302
REMARK  126  A    between atoms: _301  and  _304
REMARK  127  A    between atoms: _304  and  _305
REMARK  128  A    between atoms: _305  and  _306
REMARK  129  A    between atoms: _309  and  _311
REMARK  130  A    between atoms: _311  and  _312
REMARK  131  A    between atoms: _311  and  _314
REMARK  132  A    between atoms: _314  and  _315
REMARK  133  A    between atoms: _318  and  _320
REMARK  134  A    between atoms: _320  and  _321
REMARK  135  A    between atoms: _320  and  _323
REMARK  136  A    between atoms: _323  and  _324
REMARK  137  A    between atoms: _330  and  _332
REMARK  138  A    between atoms: _332  and  _333
REMARK  139  A    between atoms: _332  and  _335
REMARK  140  A    between atoms: _335  and  _336
REMARK  141  A    between atoms: _339  and  _341
REMARK  142  A    between atoms: _341  and  _342
REMARK  143  A    between atoms: _341  and  _344
REMARK  144  A    between atoms: _344  and  _345
REMARK  145  A    between atoms: _345  and  _346
REMARK  146  A    between atoms: _346  and  _347
REMARK  147  A    between atoms: _347  and  _348
REMARK  148  A    between atoms: _352  and  _354
REMARK  149  A    between atoms: _354  and  _355
REMARK  150  A    between atoms: _358  and  _360
REMARK  151  A    between atoms: _360  and  _361
REMARK  152  A    between atoms: _360  and  _363
REMARK  153  A    between atoms: _363  and  _364
REMARK  154  A    between atoms: _364  and  _365
REMARK  155  A    between atoms: _368  and  _370
REMARK  156  A    between atoms: _370  and  _371
REMARK  157  A    between atoms: _370  and  _373
REMARK  158  A    between atoms: _373  and  _374
REMARK  159  A    between atoms: _374  and  _375
REMARK  160  A    between atoms: _375  and  _376
REMARK  161  A    between atoms: _376  and  _377
REMARK  162  A    between atoms: _381  and  _383
REMARK  163  A    between atoms: _383  and  _384
REMARK  164  A    between atoms: _387  and  _389
REMARK  165  A    between atoms: _389  and  _390
REMARK  166  A    between atoms: _389  and  _392
REMARK  167  A    between atoms: _392  and  _393
REMARK  168  A    between atoms: _393  and  _394
REMARK  169  A    between atoms: _394  and  _395
REMARK  170  A    between atoms: _395  and  _396
REMARK  171  A    between atoms: _400  and  _402
REMARK  172  A    between atoms: _402  and  _403
REMARK  173  A    between atoms: _402  and  _405
REMARK  174  A    between atoms: _405  and  _406
REMARK  175  A    between atoms: _409  and  _411
REMARK  176  A    between atoms: _411  and  _412
REMARK  177  A    between atoms: _411  and  _414
REMARK  178  A    between atoms: _414  and  _415
REMARK  179  A    between atoms: _415  and  _416
REMARK  180  A    between atoms: _419  and  _421
REMARK  181  A    between atoms: _421  and  _422
REMARK  182  A    between atoms: _421  and  _424
REMARK  183  A    between atoms: _424  and  _425
REMARK  184  A    between atoms: _428  and  _430
REMARK  185  A    between atoms: _430  and  _431
REMARK  186  A    between atoms: _430  and  _433
REMARK  187  A    between atoms: _433  and  _434
REMARK  188  A    between atoms: _436  and  _438
REMARK  189  A    between atoms: _438  and  _439
REMARK  190  A    between atoms: _438  and  _441
REMARK  191  A    between atoms: _441  and  _442
REMARK  192  A    between atoms: _444  and  _446
REMARK  193  A    between atoms: _446  and  _447
REMARK  194  A    between atoms: _450  and  _452
REMARK  195  A    between atoms: _452  and  _453
REMARK  196  A    between atoms: _452  and  _455
REMARK  197  A    between atoms: _455  and  _456
REMARK  198  A    between atoms: _459  and  _461
REMARK  199  A    between atoms: _461  and  _462
REMARK  200  A    between atoms: _461  and  _464
REMARK  201  A    between atoms: _467  and  _469
REMARK  202  A    between atoms: _469  and  _470
REMARK  203  A    between atoms: _472  and  _474
REMARK  204  A    between atoms: _474  and  _475
REMARK  205  A    between atoms: _477  and  _479
REMARK  206  A    between atoms: _479  and  _480
REMARK  207  A    between atoms: _479  and  _482
REMARK  208  A    between atoms: _482  and  _483
REMARK  209  A    between atoms: _483  and  _484
REMARK  210  A    between atoms: _489  and  _491
REMARK  211  A    between atoms: _491  and  _492
REMARK  212  A    between atoms: _491  and  _494
REMARK  213  A    between atoms: _494  and  _495
REMARK  214  A    between atoms: _498  and  _500
REMARK  215  A    between atoms: _500  and  _501
REMARK  216  A    between atoms: _500  and  _503
REMARK  217  A    between atoms: _503  and  _504
REMARK  218  A    between atoms: _504  and  _505
REMARK  219  A    between atoms: _505  and  _506
REMARK  220  A    between atoms: _515  and  _517
REMARK  221  A    between atoms: _517  and  _518
REMARK  222  A    between atoms: _517  and  _520
REMARK  223  A    between atoms: _520  and  _521
REMARK  224  A    between atoms: _521  and  _522
REMARK  225  A    between atoms: _525  and  _526
REMARK  226  A    between atoms: _531  and  _533
REMARK  227  A    between atoms: _533  and  _534
REMARK  228  A    between atoms: _533  and  _536
REMARK  229  A    between atoms: _539  and  _541
REMARK  230  A    between atoms: _541  and  _542
REMARK  231  A    between atoms: _541  and  _544
REMARK  232  A    between atoms: _544  and  _545
REMARK  233  A    between atoms: _545  and  _546
REMARK  234  A    between atoms: _552  and  _553
REMARK  235  A    between atoms: _558  and  _560
REMARK  236  A    between atoms: _560  and  _561
REMARK  237  A    between atoms: _560  and  _563
REMARK  238  A    between atoms: _563  and  _564
REMARK  239  A    between atoms: _567  and  _569
REMARK  240  A    between atoms: _569  and  _570
REMARK  241  A    between atoms: _569  and  _572
REMARK  242  A    between atoms: _572  and  _573
REMARK  243  A    between atoms: _573  and  _574
REMARK  244  A    between atoms: _577  and  _579
REMARK  245  A    between atoms: _579  and  _580
REMARK  246  A    between atoms: _579  and  _582
REMARK  247  A    between atoms: _585  and  _587
REMARK  248  A    between atoms: _587  and  _588
REMARK  249  A    between atoms: _591  and  _593
REMARK  250  A    between atoms: _593  and  _594
REMARK  251  A    between atoms: _593  and  _596
REMARK  252  A    between atoms: _596  and  _597
REMARK  253  A    between atoms: _597  and  _598
REMARK  254  A    between atoms: _601  and  _603
REMARK  255  A    between atoms: _603  and  _604
REMARK  256  A    between atoms: _606  and  _608
REMARK  257  A    between atoms: _608  and  _609
REMARK  258  A    between atoms: _608  and  _611
REMARK  259  A    between atoms: _611  and  _612
REMARK                            x       y       z     vdW  Elec       q    Type
REMARK                         _______ _______ _______ _____ _____    ______ ____
ROOT
ATOM      1  O   HOH     1      19.173  71.440  25.094  0.00  0.00    +0.000 OA
ENDROOT
TORSDOF 0
REMARK  Name = ../refined-set-2016/4jne/4jne_pocket.pdb
REMARK  259 active torsions:
REMARK  status: ('A' for Active; 'I' for Inactive)
REMARK    1  A    between atoms: _1  and  _3
REMARK    2  A    between atoms: _3  and  _4
REMARK    3  A    between atoms: _3  and  _6
REMARK    4  A    between atoms: _6  and  _7
REMARK    5  A    between atoms: _10  and  _12
REMARK    6  A    between atoms: _12  and  _13
REMARK    7  A    between atoms: _12  and  _15
REMARK    8  A    between atoms: _15  and  _16
REMARK    9  A    between atoms: _19  and  _21
REMARK   10  A    between atoms: _21  and  _22
REMARK   11  A    between atoms: _24  and  _26
REMARK   12  A    between atoms: _26  and  _27
REMARK   13  A    between atoms: _26  and  _29
REMARK   14  A    between atoms: _29  and  _30
REMARK   15  A    between atoms: _33  and  _35
REMARK   16  A    between atoms: _35  and  _36
REMARK   17  A    between atoms: _35  and  _38
REMARK   18  A    between atoms: _38  and  _39
REMARK   19  A    between atoms: _42  and  _44
REMARK   20  A    between atoms: _44  and  _45
REMARK   21  A    between atoms: _44  and  _47
REMARK   22  A    between atoms: _47  and  _48
REMARK   23  A    between atoms: _53  and  _55
REMARK   24  A    between atoms: _55  and  _56
REMARK   25  A    between atoms: _55  and  _58
REMARK   26  A    between atoms: _58  and  _59
REMARK   27  A    between atoms: _61  and  _63
REMARK   28  A    between atoms: _63  and  _64
REMARK   29  A    between atoms: _63  and  _66
REMARK   30  A    between atoms: _68  and  _70
REMARK   31  A    between atoms: _70  and  _71
REMARK   32  A    between atoms: _70  and  _73
REMARK   33  A    between atoms: _73  and  _74
REMARK   34  A    between atoms: _77  and  _79
REMARK   35  A    between atoms: _79  and  _80
REMARK   36  A    between atoms: _79  and  _82
REMARK   37  A    between atoms: _82  and  _83
REMARK   38  A    between atoms: _87  and  _88
REMARK   39  A    between atoms: _93  and  _95
REMARK   40  A    between atoms: _95  and  _96
REMARK   41  A    between atoms: _95  and  _98
REMARK   42  A    between atoms: _98  and  _99
REMARK   43  A    between atoms: _101  and  _103
REMARK   44  A    between atoms: _103  and  _104
REMARK   45  A    between atoms: _103  and  _106
REMARK   46  A    between atoms: _106  and  _107
REMARK   47  A    between atoms: _107  and  _108
REMARK   48  A    between atoms: _108  and  _109
REMARK   49  A    between atoms: _109  and  _110
REMARK   50  A    between atoms: _114  and  _116
REMARK   51  A    between atoms: _116  and  _117
REMARK   52  A    between atoms: _120  and  _122
REMARK   53  A    between atoms: _122  and  _123
REMARK   54  A    between atoms: _122  and  _125
REMARK   55  A    between atoms: _125  and  _126
REMARK   56  A    between atoms: _126  and  _127
REMARK   57  A    between atoms: _127  and  _128
REMARK   58  A    between atoms: _128  and  _129
REMARK   59  A    between atoms: _133  and  _135
REMARK   60  A    between atoms: _135  and  _136
REMARK   61  A    between atoms: _135  and  _138
REMARK   62  A    between atoms: _138  and  _139
REMARK   63  A    between atoms: _139  and  _140
REMARK   64  A    between atoms: _140  and  _141
REMARK   65  A    between atoms: _150  and  _152
REMARK   66  A    between atoms: _152  and  _153
REMARK   67  A    between atoms: _152  and  _155
REMARK   68  A    between atoms: _155  and  _156
REMARK   69  A    between atoms: _159  and  _161
REMARK   70  A    between atoms: _161  and  _162
REMARK   71  A    between atoms: _161  and  _164
REMARK   72  A    between atoms: _168  and  _169
REMARK   73  A    between atoms: _174  and  _176
REMARK   74  A    between atoms: _176  and  _177
REMARK   75  A    between atoms: _180  and  _182
REMARK   76  A    between atoms: _182  and  _183
REMARK   77  A    between atoms: _182  and  _185
REMARK   78  A    between atoms: _185  and  _186
REMARK   79  A    between atoms: _192  and  _194
REMARK   80  A    between atoms: _194  and  _195
REMARK   81  A    between atoms: _194  and  _197
REMARK   82  A    between atoms: _197  and  _198
REMARK   83  A    between atoms: _198  and  _199
REMARK   84  A    between atoms: _202  and  _204
REMARK   85  A    between atoms: _204  and  _205
REMARK   86  A    between atoms: _204  and  _207
REMARK   87  A    between atoms: _207  and  _208
REMARK   88  A    between atoms: _211  and  _213
REMARK   89  A    between atoms: _213  and  _214
REMARK   90  A    between atoms: _213  and  _216
REMARK   91  A    between atoms: _216  and  _217
REMARK   92  A    between atoms: _220  and  _222
REMARK   93  A    between atoms: _222  and  _223
REMARK   94  A    between atoms: _225  and  _227
REMARK   95  A    between atoms: _227  and  _228
REMARK   96  A    between atoms: _230  and  _232
REMARK   97  A    between atoms: _232  and  _233
REMARK   98  A    between atoms: _235  and  _237
REMARK   99  A    between atoms: _237  and  _238
REMARK  100  A    between atoms: _241  and  _243
REMARK  101  A    between atoms: _243  and  _244
REMARK  102  A    between atoms: _243  and  _246
REMARK  103  A    between atoms: _246  and  _247
REMARK  104  A    between atoms: _253  and  _255
REMARK  105  A    between atoms: _255  and  _256
REMARK  106  A    between atoms: _255  and  _258
REMARK  107  A    between atoms: _258  and  _259
REMARK  108  A    between atoms: _262  and  _264
REMARK  109  A    between atoms: _264  and  _265
REMARK  110  A    between atoms: _264  and  _267
REMARK  111  A    between atoms: _267  and  _268
REMARK  112  A    between atoms: _271  and  _273
REMARK  113  A    between atoms: _273  and  _274
REMARK  114  A    between atoms: _273  and  _276
REMARK  115  A    between atoms: _276  and  _277
REMARK  116  A    between atoms: _280  and  _282
REMARK  117  A    between atoms: _282  and  _283
REMARK  118  A    between atoms: _282  and  _285
REMARK  119  A    between atoms: _285  and  _286
REMARK  120  A    between atoms: _289  and  _291
REMARK  121  A    between atoms: _291  and  _292
REMARK  122  A    between atoms: _294  and  _296
REMARK  123  A    between atoms: _296  and  _297
REMARK  124  A    between atoms: _299  and  _301
REMARK  125  A    between atoms: _301  and  _302
REMARK  126  A    between atoms: _301  and  _304
REMARK  127  A    between atoms: _304  and  _305
REMARK  128  A    between atoms: _305  and  _306
REMARK  129  A    between atoms: _309  and  _311
REMARK  130  A    between atoms: _311  and  _312
REMARK  131  A    between atoms: _311  and  _314
REMARK  132  A    between atoms: _314  and  _315
REMARK  133  A    between atoms: _318  and  _320
REMARK  134  A    between atoms: _320  and  _321
REMARK  135  A    between atoms: _320  and  _323
REMARK  136  A    between atoms: _323  and  _324
REMARK  137  A    between atoms: _330  and  _332
REMARK  138  A    between atoms: _332  and  _333
REMARK  139  A    between atoms: _332  and  _335
REMARK  140  A    between atoms: _335  and  _336
REMARK  141  A    between atoms: _339  and  _341
REMARK  142  A    between atoms: _341  and  _342
REMARK  143  A    between atoms: _341  and  _344
REMARK  144  A    between atoms: _344  and  _345
REMARK  145  A    between atoms: _345  and  _346
REMARK  146  A    between atoms: _346  and  _347
REMARK  147  A    between atoms: _347  and  _348
REMARK  148  A    between atoms: _352  and  _354
REMARK  149  A    between atoms: _354  and  _355
REMARK  150  A    between atoms: _358  and  _360
REMARK  151  A    between atoms: _360  and  _361
REMARK  152  A    between atoms: _360  and  _363
REMARK  153  A    between atoms: _363  and  _364
REMARK  154  A    between atoms: _364  and  _365
REMARK  155  A    between atoms: _368  and  _370
REMARK  156  A    between atoms: _370  and  _371
REMARK  157  A    between atoms: _370  and  _373
REMARK  158  A    between atoms: _373  and  _374
REMARK  159  A    between atoms: _374  and  _375
REMARK  160  A    between atoms: _375  and  _376
REMARK  161  A    between atoms: _376  and  _377
REMARK  162  A    between atoms: _381  and  _383
REMARK  163  A    between atoms: _383  and  _384
REMARK  164  A    between atoms: _387  and  _389
REMARK  165  A    between atoms: _389  and  _390
REMARK  166  A    between atoms: _389  and  _392
REMARK  167  A    between atoms: _392  and  _393
REMARK  168  A    between atoms: _393  and  _394
REMARK  169  A    between atoms: _394  and  _395
REMARK  170  A    between atoms: _395  and  _396
REMARK  171  A    between atoms: _400  and  _402
REMARK  172  A    between atoms: _402  and  _403
REMARK  173  A    between atoms: _402  and  _405
REMARK  174  A    between atoms: _405  and  _406
REMARK  175  A    between atoms: _409  and  _411
REMARK  176  A    between atoms: _411  and  _412
REMARK  177  A    between atoms: _411  and  _414
REMARK  178  A    between atoms: _414  and  _415
REMARK  179  A    between atoms: _415  and  _416
REMARK  180  A    between atoms: _419  and  _421
REMARK  181  A    between atoms: _421  and  _422
REMARK  182  A    between atoms: _421  and  _424
REMARK  183  A    between atoms: _424  and  _425
REMARK  184  A    between atoms: _428  and  _430
REMARK  185  A    between atoms: _430  and  _431
REMARK  186  A    between atoms: _430  and  _433
REMARK  187  A    between atoms: _433  and  _434
REMARK  188  A    between atoms: _436  and  _438
REMARK  189  A    between atoms: _438  and  _439
REMARK  190  A    between atoms: _438  and  _441
REMARK  191  A    between atoms: _441  and  _442
REMARK  192  A    between atoms: _444  and  _446
REMARK  193  A    between atoms: _446  and  _447
REMARK  194  A    between atoms: _450  and  _452
REMARK  195  A    between atoms: _452  and  _453
REMARK  196  A    between atoms: _452  and  _455
REMARK  197  A    between atoms: _455  and  _456
REMARK  198  A    between atoms: _459  and  _461
REMARK  199  A    between atoms: _461  and  _462
REMARK  200  A    between atoms: _461  and  _464
REMARK  201  A    between atoms: _467  and  _469
REMARK  202  A    between atoms: _469  and  _470
REMARK  203  A    between atoms: _472  and  _474
REMARK  204  A    between atoms: _474  and  _475
REMARK  205  A    between atoms: _477  and  _479
REMARK  206  A    between atoms: _479  and  _480
REMARK  207  A    between atoms: _479  and  _482
REMARK  208  A    between atoms: _482  and  _483
REMARK  209  A    between atoms: _483  and  _484
REMARK  210  A    between atoms: _489  and  _491
REMARK  211  A    between atoms: _491  and  _492
REMARK  212  A    between atoms: _491  and  _494
REMARK  213  A    between atoms: _494  and  _495
REMARK  214  A    between atoms: _498  and  _500
REMARK  215  A    between atoms: _500  and  _501
REMARK  216  A    between atoms: _500  and  _503
REMARK  217  A    between atoms: _503  and  _504
REMARK  218  A    between atoms: _504  and  _505
REMARK  219  A    between atoms: _505  and  _506
REMARK  220  A    between atoms: _515  and  _517
REMARK  221  A    between atoms: _517  and  _518
REMARK  222  A    between atoms: _517  and  _520
REMARK  223  A    between atoms: _520  and  _521
REMARK  224  A    between atoms: _521  and  _522
REMARK  225  A    between atoms: _525  and  _526
REMARK  226  A    between atoms: _531  and  _533
REMARK  227  A    between atoms: _533  and  _534
REMARK  228  A    between atoms: _533  and  _536
REMARK  229  A    between atoms: _539  and  _541
REMARK  230  A    between atoms: _541  and  _542
REMARK  231  A    between atoms: _541  and  _544
REMARK  232  A    between atoms: _544  and  _545
REMARK  233  A    between atoms: _545  and  _546
REMARK  234  A    between atoms: _552  and  _553
REMARK  235  A    between atoms: _558  and  _560
REMARK  236  A    between atoms: _560  and  _561
REMARK  237  A    between atoms: _560  and  _563
REMARK  238  A    between atoms: _563  and  _564
REMARK  239  A    between atoms: _567  and  _569
REMARK  240  A    between atoms: _569  and  _570
REMARK  241  A    between atoms: _569  and  _572
REMARK  242  A    between atoms: _572  and  _573
REMARK  243  A    between atoms: _573  and  _574
REMARK  244  A    between atoms: _577  and  _579
REMARK  245  A    between atoms: _579  and  _580
REMARK  246  A    between atoms: _579  and  _582
REMARK  247  A    between atoms: _585  and  _587
REMARK  248  A    between atoms: _587  and  _588
REMARK  249  A    between atoms: _591  and  _593
REMARK  250  A    between atoms: _593  and  _594
REMARK  251  A    between atoms: _593  and  _596
REMARK  252  A    between atoms: _596  and  _597
REMARK  253  A    between atoms: _597  and  _598
REMARK  254  A    between atoms: _601  and  _603
REMARK  255  A    between atoms: _603  and  _604
REMARK  256  A    between atoms: _606  and  _608
REMARK  257  A    between atoms: _608  and  _609
REMARK  258  A    between atoms: _608  and  _611
REMARK  259  A    between atoms: _611  and  _612
REMARK                            x       y       z     vdW  Elec       q    Type
REMARK                         _______ _______ _______ _____ _____    ______ ____
ROOT
ATOM      1  O   HOH     1      25.050  78.895  42.435  0.00  0.00    +0.000 OA
ENDROOT
TORSDOF 0
REMARK  Name = ../refined-set-2016/4jne/4jne_pocket.pdb
REMARK  259 active torsions:
REMARK  status: ('A' for Active; 'I' for Inactive)
REMARK    1  A    between atoms: _1  and  _3
REMARK    2  A    between atoms: _3  and  _4
REMARK    3  A    between atoms: _3  and  _6
REMARK    4  A    between atoms: _6  and  _7
REMARK    5  A    between atoms: _10  and  _12
REMARK    6  A    between atoms: _12  and  _13
REMARK    7  A    between atoms: _12  and  _15
REMARK    8  A    between atoms: _15  and  _16
REMARK    9  A    between atoms: _19  and  _21
REMARK   10  A    between atoms: _21  and  _22
REMARK   11  A    between atoms: _24  and  _26
REMARK   12  A    between atoms: _26  and  _27
REMARK   13  A    between atoms: _26  and  _29
REMARK   14  A    between atoms: _29  and  _30
REMARK   15  A    between atoms: _33  and  _35
REMARK   16  A    between atoms: _35  and  _36
REMARK   17  A    between atoms: _35  and  _38
REMARK   18  A    between atoms: _38  and  _39
REMARK   19  A    between atoms: _42  and  _44
REMARK   20  A    between atoms: _44  and  _45
REMARK   21  A    between atoms: _44  and  _47
REMARK   22  A    between atoms: _47  and  _48
REMARK   23  A    between atoms: _53  and  _55
REMARK   24  A    between atoms: _55  and  _56
REMARK   25  A    between atoms: _55  and  _58
REMARK   26  A    between atoms: _58  and  _59
REMARK   27  A    between atoms: _61  and  _63
REMARK   28  A    between atoms: _63  and  _64
REMARK   29  A    between atoms: _63  and  _66
REMARK   30  A    between atoms: _68  and  _70
REMARK   31  A    between atoms: _70  and  _71
REMARK   32  A    between atoms: _70  and  _73
REMARK   33  A    between atoms: _73  and  _74
REMARK   34  A    between atoms: _77  and  _79
REMARK   35  A    between atoms: _79  and  _80
REMARK   36  A    between atoms: _79  and  _82
REMARK   37  A    between atoms: _82  and  _83
REMARK   38  A    between atoms: _87  and  _88
REMARK   39  A    between atoms: _93  and  _95
REMARK   40  A    between atoms: _95  and  _96
REMARK   41  A    between atoms: _95  and  _98
REMARK   42  A    between atoms: _98  and  _99
REMARK   43  A    between atoms: _101  and  _103
REMARK   44  A    between atoms: _103  and  _104
REMARK   45  A    between atoms: _103  and  _106
REMARK   46  A    between atoms: _106  and  _107
REMARK   47  A    between atoms: _107  and  _108
REMARK   48  A    between atoms: _108  and  _109
REMARK   49  A    between atoms: _109  and  _110
REMARK   50  A    between atoms: _114  and  _116
REMARK   51  A    between atoms: _116  and  _117
REMARK   52  A    between atoms: _120  and  _122
REMARK   53  A    between atoms: _122  and  _123
REMARK   54  A    between atoms: _122  and  _125
REMARK   55  A    between atoms: _125  and  _126
REMARK   56  A    between atoms: _126  and  _127
REMARK   57  A    between atoms: _127  and  _128
REMARK   58  A    between atoms: _128  and  _129
REMARK   59  A    between atoms: _133  and  _135
REMARK   60  A    between atoms: _135  and  _136
REMARK   61  A    between atoms: _135  and  _138
REMARK   62  A    between atoms: _138  and  _139
REMARK   63  A    between atoms: _139  and  _140
REMARK   64  A    between atoms: _140  and  _141
REMARK   65  A    between atoms: _150  and  _152
REMARK   66  A    between atoms: _152  and  _153
REMARK   67  A    between atoms: _152  and  _155
REMARK   68  A    between atoms: _155  and  _156
REMARK   69  A    between atoms: _159  and  _161
REMARK   70  A    between atoms: _161  and  _162
REMARK   71  A    between atoms: _161  and  _164
REMARK   72  A    between atoms: _168  and  _169
REMARK   73  A    between atoms: _174  and  _176
REMARK   74  A    between atoms: _176  and  _177
REMARK   75  A    between atoms: _180  and  _182
REMARK   76  A    between atoms: _182  and  _183
REMARK   77  A    between atoms: _182  and  _185
REMARK   78  A    between atoms: _185  and  _186
REMARK   79  A    between atoms: _192  and  _194
REMARK   80  A    between atoms: _194  and  _195
REMARK   81  A    between atoms: _194  and  _197
REMARK   82  A    between atoms: _197  and  _198
REMARK   83  A    between atoms: _198  and  _199
REMARK   84  A    between atoms: _202  and  _204
REMARK   85  A    between atoms: _204  and  _205
REMARK   86  A    between atoms: _204  and  _207
REMARK   87  A    between atoms: _207  and  _208
REMARK   88  A    between atoms: _211  and  _213
REMARK   89  A    between atoms: _213  and  _214
REMARK   90  A    between atoms: _213  and  _216
REMARK   91  A    between atoms: _216  and  _217
REMARK   92  A    between atoms: _220  and  _222
REMARK   93  A    between atoms: _222  and  _223
REMARK   94  A    between atoms: _225  and  _227
REMARK   95  A    between atoms: _227  and  _228
REMARK   96  A    between atoms: _230  and  _232
REMARK   97  A    between atoms: _232  and  _233
REMARK   98  A    between atoms: _235  and  _237
REMARK   99  A    between atoms: _237  and  _238
REMARK  100  A    between atoms: _241  and  _243
REMARK  101  A    between atoms: _243  and  _244
REMARK  102  A    between atoms: _243  and  _246
REMARK  103  A    between atoms: _246  and  _247
REMARK  104  A    between atoms: _253  and  _255
REMARK  105  A    between atoms: _255  and  _256
REMARK  106  A    between atoms: _255  and  _258
REMARK  107  A    between atoms: _258  and  _259
REMARK  108  A    between atoms: _262  and  _264
REMARK  109  A    between atoms: _264  and  _265
REMARK  110  A    between atoms: _264  and  _267
REMARK  111  A    between atoms: _267  and  _268
REMARK  112  A    between atoms: _271  and  _273
REMARK  113  A    between atoms: _273  and  _274
REMARK  114  A    between atoms: _273  and  _276
REMARK  115  A    between atoms: _276  and  _277
REMARK  116  A    between atoms: _280  and  _282
REMARK  117  A    between atoms: _282  and  _283
REMARK  118  A    between atoms: _282  and  _285
REMARK  119  A    between atoms: _285  and  _286
REMARK  120  A    between atoms: _289  and  _291
REMARK  121  A    between atoms: _291  and  _292
REMARK  122  A    between atoms: _294  and  _296
REMARK  123  A    between atoms: _296  and  _297
REMARK  124  A    between atoms: _299  and  _301
REMARK  125  A    between atoms: _301  and  _302
REMARK  126  A    between atoms: _301  and  _304
REMARK  127  A    between atoms: _304  and  _305
REMARK  128  A    between atoms: _305  and  _306
REMARK  129  A    between atoms: _309  and  _311
REMARK  130  A    between atoms: _311  and  _312
REMARK  131  A    between atoms: _311  and  _314
REMARK  132  A    between atoms: _314  and  _315
REMARK  133  A    between atoms: _318  and  _320
REMARK  134  A    between atoms: _320  and  _321
REMARK  135  A    between atoms: _320  and  _323
REMARK  136  A    between atoms: _323  and  _324
REMARK  137  A    between atoms: _330  and  _332
REMARK  138  A    between atoms: _332  and  _333
REMARK  139  A    between atoms: _332  and  _335
REMARK  140  A    between atoms: _335  and  _336
REMARK  141  A    between atoms: _339  and  _341
REMARK  142  A    between atoms: _341  and  _342
REMARK  143  A    between atoms: _341  and  _344
REMARK  144  A    between atoms: _344  and  _345
REMARK  145  A    between atoms: _345  and  _346
REMARK  146  A    between atoms: _346  and  _347
REMARK  147  A    between atoms: _347  and  _348
REMARK  148  A    between atoms: _352  and  _354
REMARK  149  A    between atoms: _354  and  _355
REMARK  150  A    between atoms: _358  and  _360
REMARK  151  A    between atoms: _360  and  _361
REMARK  152  A    between atoms: _360  and  _363
REMARK  153  A    between atoms: _363  and  _364
REMARK  154  A    between atoms: _364  and  _365
REMARK  155  A    between atoms: _368  and  _370
REMARK  156  A    between atoms: _370  and  _371
REMARK  157  A    between atoms: _370  and  _373
REMARK  158  A    between atoms: _373  and  _374
REMARK  159  A    between atoms: _374  and  _375
REMARK  160  A    between atoms: _375  and  _376
REMARK  161  A    between atoms: _376  and  _377
REMARK  162  A    between atoms: _381  and  _383
REMARK  163  A    between atoms: _383  and  _384
REMARK  164  A    between atoms: _387  and  _389
REMARK  165  A    between atoms: _389  and  _390
REMARK  166  A    between atoms: _389  and  _392
REMARK  167  A    between atoms: _392  and  _393
REMARK  168  A    between atoms: _393  and  _394
REMARK  169  A    between atoms: _394  and  _395
REMARK  170  A    between atoms: _395  and  _396
REMARK  171  A    between atoms: _400  and  _402
REMARK  172  A    between atoms: _402  and  _403
REMARK  173  A    between atoms: _402  and  _405
REMARK  174  A    between atoms: _405  and  _406
REMARK  175  A    between atoms: _409  and  _411
REMARK  176  A    between atoms: _411  and  _412
REMARK  177  A    between atoms: _411  and  _414
REMARK  178  A    between atoms: _414  and  _415
REMARK  179  A    between atoms: _415  and  _416
REMARK  180  A    between atoms: _419  and  _421
REMARK  181  A    between atoms: _421  and  _422
REMARK  182  A    between atoms: _421  and  _424
REMARK  183  A    between atoms: _424  and  _425
REMARK  184  A    between atoms: _428  and  _430
REMARK  185  A    between atoms: _430  and  _431
REMARK  186  A    between atoms: _430  and  _433
REMARK  187  A    between atoms: _433  and  _434
REMARK  188  A    between atoms: _436  and  _438
REMARK  189  A    between atoms: _438  and  _439
REMARK  190  A    between atoms: _438  and  _441
REMARK  191  A    between atoms: _441  and  _442
REMARK  192  A    between atoms: _444  and  _446
REMARK  193  A    between atoms: _446  and  _447
REMARK  194  A    between atoms: _450  and  _452
REMARK  195  A    between atoms: _452  and  _453
REMARK  196  A    between atoms: _452  and  _455
REMARK  197  A    between atoms: _455  and  _456
REMARK  198  A    between atoms: _459  and  _461
REMARK  199  A    between atoms: _461  and  _462
REMARK  200  A    between atoms: _461  and  _464
REMARK  201  A    between atoms: _467  and  _469
REMARK  202  A    between atoms: _469  and  _470
REMARK  203  A    between atoms: _472  and  _474
REMARK  204  A    between atoms: _474  and  _475
REMARK  205  A    between atoms: _477  and  _479
REMARK  206  A    between atoms: _479  and  _480
REMARK  207  A    between atoms: _479  and  _482
REMARK  208  A    between atoms: _482  and  _483
REMARK  209  A    between atoms: _483  and  _484
REMARK  210  A    between atoms: _489  and  _491
REMARK  211  A    between atoms: _491  and  _492
REMARK  212  A    between atoms: _491  and  _494
REMARK  213  A    between atoms: _494  and  _495
REMARK  214  A    between atoms: _498  and  _500
REMARK  215  A    between atoms: _500  and  _501
REMARK  216  A    between atoms: _500  and  _503
REMARK  217  A    between atoms: _503  and  _504
REMARK  218  A    between atoms: _504  and  _505
REMARK  219  A    between atoms: _505  and  _506
REMARK  220  A    between atoms: _515  and  _517
REMARK  221  A    between atoms: _517  and  _518
REMARK  222  A    between atoms: _517  and  _520
REMARK  223  A    between atoms: _520  and  _521
REMARK  224  A    between atoms: _521  and  _522
REMARK  225  A    between atoms: _525  and  _526
REMARK  226  A    between atoms: _531  and  _533
REMARK  227  A    between atoms: _533  and  _534
REMARK  228  A    between atoms: _533  and  _536
REMARK  229  A    between atoms: _539  and  _541
REMARK  230  A    between atoms: _541  and  _542
REMARK  231  A    between atoms: _541  and  _544
REMARK  232  A    between atoms: _544  and  _545
REMARK  233  A    between atoms: _545  and  _546
REMARK  234  A    between atoms: _552  and  _553
REMARK  235  A    between atoms: _558  and  _560
REMARK  236  A    between atoms: _560  and  _561
REMARK  237  A    between atoms: _560  and  _563
REMARK  238  A    between atoms: _563  and  _564
REMARK  239  A    between atoms: _567  and  _569
REMARK  240  A    between atoms: _569  and  _570
REMARK  241  A    between atoms: _569  and  _572
REMARK  242  A    between atoms: _572  and  _573
REMARK  243  A    between atoms: _573  and  _574
REMARK  244  A    between atoms: _577  and  _579
REMARK  245  A    between atoms: _579  and  _580
REMARK  246  A    between atoms: _579  and  _582
REMARK  247  A    between atoms: _585  and  _587
REMARK  248  A    between atoms: _587  and  _588
REMARK  249  A    between atoms: _591  and  _593
REMARK  250  A    between atoms: _593  and  _594
REMARK  251  A    between atoms: _593  and  _596
REMARK  252  A    between atoms: _596  and  _597
REMARK  253  A    between atoms: _597  and  _598
REMARK  254  A    between atoms: _601  and  _603
REMARK  255  A    between atoms: _603  and  _604
REMARK  256  A    between atoms: _606  and  _608
REMARK  257  A    between atoms: _608  and  _609
REMARK  258  A    between atoms: _608  and  _611
REMARK  259  A    between atoms: _611  and  _612
REMARK                            x       y       z     vdW  Elec       q    Type
REMARK                         _______ _______ _______ _____ _____    ______ ____
ROOT
ATOM      1  O   HOH     1      24.516  79.209  39.699  0.00  0.00    +0.000 OA
ENDROOT
TORSDOF 0
REMARK  Name = ../refined-set-2016/4jne/4jne_pocket.pdb
REMARK  259 active torsions:
REMARK  status: ('A' for Active; 'I' for Inactive)
REMARK    1  A    between atoms: _1  and  _3
REMARK    2  A    between atoms: _3  and  _4
REMARK    3  A    between atoms: _3  and  _6
REMARK    4  A    between atoms: _6  and  _7
REMARK    5  A    between atoms: _10  and  _12
REMARK    6  A    between atoms: _12  and  _13
REMARK    7  A    between atoms: _12  and  _15
REMARK    8  A    between atoms: _15  and  _16
REMARK    9  A    between atoms: _19  and  _21
REMARK   10  A    between atoms: _21  and  _22
REMARK   11  A    between atoms: _24  and  _26
REMARK   12  A    between atoms: _26  and  _27
REMARK   13  A    between atoms: _26  and  _29
REMARK   14  A    between atoms: _29  and  _30
REMARK   15  A    between atoms: _33  and  _35
REMARK   16  A    between atoms: _35  and  _36
REMARK   17  A    between atoms: _35  and  _38
REMARK   18  A    between atoms: _38  and  _39
REMARK   19  A    between atoms: _42  and  _44
REMARK   20  A    between atoms: _44  and  _45
REMARK   21  A    between atoms: _44  and  _47
REMARK   22  A    between atoms: _47  and  _48
REMARK   23  A    between atoms: _53  and  _55
REMARK   24  A    between atoms: _55  and  _56
REMARK   25  A    between atoms: _55  and  _58
REMARK   26  A    between atoms: _58  and  _59
REMARK   27  A    between atoms: _61  and  _63
REMARK   28  A    between atoms: _63  and  _64
REMARK   29  A    between atoms: _63  and  _66
REMARK   30  A    between atoms: _68  and  _70
REMARK   31  A    between atoms: _70  and  _71
REMARK   32  A    between atoms: _70  and  _73
REMARK   33  A    between atoms: _73  and  _74
REMARK   34  A    between atoms: _77  and  _79
REMARK   35  A    between atoms: _79  and  _80
REMARK   36  A    between atoms: _79  and  _82
REMARK   37  A    between atoms: _82  and  _83
REMARK   38  A    between atoms: _87  and  _88
REMARK   39  A    between atoms: _93  and  _95
REMARK   40  A    between atoms: _95  and  _96
REMARK   41  A    between atoms: _95  and  _98
REMARK   42  A    between atoms: _98  and  _99
REMARK   43  A    between atoms: _101  and  _103
REMARK   44  A    between atoms: _103  and  _104
REMARK   45  A    between atoms: _103  and  _106
REMARK   46  A    between atoms: _106  and  _107
REMARK   47  A    between atoms: _107  and  _108
REMARK   48  A    between atoms: _108  and  _109
REMARK   49  A    between atoms: _109  and  _110
REMARK   50  A    between atoms: _114  and  _116
REMARK   51  A    between atoms: _116  and  _117
REMARK   52  A    between atoms: _120  and  _122
REMARK   53  A    between atoms: _122  and  _123
REMARK   54  A    between atoms: _122  and  _125
REMARK   55  A    between atoms: _125  and  _126
REMARK   56  A    between atoms: _126  and  _127
REMARK   57  A    between atoms: _127  and  _128
REMARK   58  A    between atoms: _128  and  _129
REMARK   59  A    between atoms: _133  and  _135
REMARK   60  A    between atoms: _135  and  _136
REMARK   61  A    between atoms: _135  and  _138
REMARK   62  A    between atoms: _138  and  _139
REMARK   63  A    between atoms: _139  and  _140
REMARK   64  A    between atoms: _140  and  _141
REMARK   65  A    between atoms: _150  and  _152
REMARK   66  A    between atoms: _152  and  _153
REMARK   67  A    between atoms: _152  and  _155
REMARK   68  A    between atoms: _155  and  _156
REMARK   69  A    between atoms: _159  and  _161
REMARK   70  A    between atoms: _161  and  _162
REMARK   71  A    between atoms: _161  and  _164
REMARK   72  A    between atoms: _168  and  _169
REMARK   73  A    between atoms: _174  and  _176
REMARK   74  A    between atoms: _176  and  _177
REMARK   75  A    between atoms: _180  and  _182
REMARK   76  A    between atoms: _182  and  _183
REMARK   77  A    between atoms: _182  and  _185
REMARK   78  A    between atoms: _185  and  _186
REMARK   79  A    between atoms: _192  and  _194
REMARK   80  A    between atoms: _194  and  _195
REMARK   81  A    between atoms: _194  and  _197
REMARK   82  A    between atoms: _197  and  _198
REMARK   83  A    between atoms: _198  and  _199
REMARK   84  A    between atoms: _202  and  _204
REMARK   85  A    between atoms: _204  and  _205
REMARK   86  A    between atoms: _204  and  _207
REMARK   87  A    between atoms: _207  and  _208
REMARK   88  A    between atoms: _211  and  _213
REMARK   89  A    between atoms: _213  and  _214
REMARK   90  A    between atoms: _213  and  _216
REMARK   91  A    between atoms: _216  and  _217
REMARK   92  A    between atoms: _220  and  _222
REMARK   93  A    between atoms: _222  and  _223
REMARK   94  A    between atoms: _225  and  _227
REMARK   95  A    between atoms: _227  and  _228
REMARK   96  A    between atoms: _230  and  _232
REMARK   97  A    between atoms: _232  and  _233
REMARK   98  A    between atoms: _235  and  _237
REMARK   99  A    between atoms: _237  and  _238
REMARK  100  A    between atoms: _241  and  _243
REMARK  101  A    between atoms: _243  and  _244
REMARK  102  A    between atoms: _243  and  _246
REMARK  103  A    between atoms: _246  and  _247
REMARK  104  A    between atoms: _253  and  _255
REMARK  105  A    between atoms: _255  and  _256
REMARK  106  A    between atoms: _255  and  _258
REMARK  107  A    between atoms: _258  and  _259
REMARK  108  A    between atoms: _262  and  _264
REMARK  109  A    between atoms: _264  and  _265
REMARK  110  A    between atoms: _264  and  _267
REMARK  111  A    between atoms: _267  and  _268
REMARK  112  A    between atoms: _271  and  _273
REMARK  113  A    between atoms: _273  and  _274
REMARK  114  A    between atoms: _273  and  _276
REMARK  115  A    between atoms: _276  and  _277
REMARK  116  A    between atoms: _280  and  _282
REMARK  117  A    between atoms: _282  and  _283
REMARK  118  A    between atoms: _282  and  _285
REMARK  119  A    between atoms: _285  and  _286
REMARK  120  A    between atoms: _289  and  _291
REMARK  121  A    between atoms: _291  and  _292
REMARK  122  A    between atoms: _294  and  _296
REMARK  123  A    between atoms: _296  and  _297
REMARK  124  A    between atoms: _299  and  _301
REMARK  125  A    between atoms: _301  and  _302
REMARK  126  A    between atoms: _301  and  _304
REMARK  127  A    between atoms: _304  and  _305
REMARK  128  A    between atoms: _305  and  _306
REMARK  129  A    between atoms: _309  and  _311
REMARK  130  A    between atoms: _311  and  _312
REMARK  131  A    between atoms: _311  and  _314
REMARK  132  A    between atoms: _314  and  _315
REMARK  133  A    between atoms: _318  and  _320
REMARK  134  A    between atoms: _320  and  _321
REMARK  135  A    between atoms: _320  and  _323
REMARK  136  A    between atoms: _323  and  _324
REMARK  137  A    between atoms: _330  and  _332
REMARK  138  A    between atoms: _332  and  _333
REMARK  139  A    between atoms: _332  and  _335
REMARK  140  A    between atoms: _335  and  _336
REMARK  141  A    between atoms: _339  and  _341
REMARK  142  A    between atoms: _341  and  _342
REMARK  143  A    between atoms: _341  and  _344
REMARK  144  A    between atoms: _344  and  _345
REMARK  145  A    between atoms: _345  and  _346
REMARK  146  A    between atoms: _346  and  _347
REMARK  147  A    between atoms: _347  and  _348
REMARK  148  A    between atoms: _352  and  _354
REMARK  149  A    between atoms: _354  and  _355
REMARK  150  A    between atoms: _358  and  _360
REMARK  151  A    between atoms: _360  and  _361
REMARK  152  A    between atoms: _360  and  _363
REMARK  153  A    between atoms: _363  and  _364
REMARK  154  A    between atoms: _364  and  _365
REMARK  155  A    between atoms: _368  and  _370
REMARK  156  A    between atoms: _370  and  _371
REMARK  157  A    between atoms: _370  and  _373
REMARK  158  A    between atoms: _373  and  _374
REMARK  159  A    between atoms: _374  and  _375
REMARK  160  A    between atoms: _375  and  _376
REMARK  161  A    between atoms: _376  and  _377
REMARK  162  A    between atoms: _381  and  _383
REMARK  163  A    between atoms: _383  and  _384
REMARK  164  A    between atoms: _387  and  _389
REMARK  165  A    between atoms: _389  and  _390
REMARK  166  A    between atoms: _389  and  _392
REMARK  167  A    between atoms: _392  and  _393
REMARK  168  A    between atoms: _393  and  _394
REMARK  169  A    between atoms: _394  and  _395
REMARK  170  A    between atoms: _395  and  _396
REMARK  171  A    between atoms: _400  and  _402
REMARK  172  A    between atoms: _402  and  _403
REMARK  173  A    between atoms: _402  and  _405
REMARK  174  A    between atoms: _405  and  _406
REMARK  175  A    between atoms: _409  and  _411
REMARK  176  A    between atoms: _411  and  _412
REMARK  177  A    between atoms: _411  and  _414
REMARK  178  A    between atoms: _414  and  _415
REMARK  179  A    between atoms: _415  and  _416
REMARK  180  A    between atoms: _419  and  _421
REMARK  181  A    between atoms: _421  and  _422
REMARK  182  A    between atoms: _421  and  _424
REMARK  183  A    between atoms: _424  and  _425
REMARK  184  A    between atoms: _428  and  _430
REMARK  185  A    between atoms: _430  and  _431
REMARK  186  A    between atoms: _430  and  _433
REMARK  187  A    between atoms: _433  and  _434
REMARK  188  A    between atoms: _436  and  _438
REMARK  189  A    between atoms: _438  and  _439
REMARK  190  A    between atoms: _438  and  _441
REMARK  191  A    between atoms: _441  and  _442
REMARK  192  A    between atoms: _444  and  _446
REMARK  193  A    between atoms: _446  and  _447
REMARK  194  A    between atoms: _450  and  _452
REMARK  195  A    between atoms: _452  and  _453
REMARK  196  A    between atoms: _452  and  _455
REMARK  197  A    between atoms: _455  and  _456
REMARK  198  A    between atoms: _459  and  _461
REMARK  199  A    between atoms: _461  and  _462
REMARK  200  A    between atoms: _461  and  _464
REMARK  201  A    between atoms: _467  and  _469
REMARK  202  A    between atoms: _469  and  _470
REMARK  203  A    between atoms: _472  and  _474
REMARK  204  A    between atoms: _474  and  _475
REMARK  205  A    between atoms: _477  and  _479
REMARK  206  A    between atoms: _479  and  _480
REMARK  207  A    between atoms: _479  and  _482
REMARK  208  A    between atoms: _482  and  _483
REMARK  209  A    between atoms: _483  and  _484
REMARK  210  A    between atoms: _489  and  _491
REMARK  211  A    between atoms: _491  and  _492
REMARK  212  A    between atoms: _491  and  _494
REMARK  213  A    between atoms: _494  and  _495
REMARK  214  A    between atoms: _498  and  _500
REMARK  215  A    between atoms: _500  and  _501
REMARK  216  A    between atoms: _500  and  _503
REMARK  217  A    between atoms: _503  and  _504
REMARK  218  A    between atoms: _504  and  _505
REMARK  219  A    between atoms: _505  and  _506
REMARK  220  A    between atoms: _515  and  _517
REMARK  221  A    between atoms: _517  and  _518
REMARK  222  A    between atoms: _517  and  _520
REMARK  223  A    between atoms: _520  and  _521
REMARK  224  A    between atoms: _521  and  _522
REMARK  225  A    between atoms: _525  and  _526
REMARK  226  A    between atoms: _531  and  _533
REMARK  227  A    between atoms: _533  and  _534
REMARK  228  A    between atoms: _533  and  _536
REMARK  229  A    between atoms: _539  and  _541
REMARK  230  A    between atoms: _541  and  _542
REMARK  231  A    between atoms: _541  and  _544
REMARK  232  A    between atoms: _544  and  _545
REMARK  233  A    between atoms: _545  and  _546
REMARK  234  A    between atoms: _552  and  _553
REMARK  235  A    between atoms: _558  and  _560
REMARK  236  A    between atoms: _560  and  _561
REMARK  237  A    between atoms: _560  and  _563
REMARK  238  A    between atoms: _563  and  _564
REMARK  239  A    between atoms: _567  and  _569
REMARK  240  A    between atoms: _569  and  _570
REMARK  241  A    between atoms: _569  and  _572
REMARK  242  A    between atoms: _572  and  _573
REMARK  243  A    between atoms: _573  and  _574
REMARK  244  A    between atoms: _577  and  _579
REMARK  245  A    between atoms: _579  and  _580
REMARK  246  A    between atoms: _579  and  _582
REMARK  247  A    between atoms: _585  and  _587
REMARK  248  A    between atoms: _587  and  _588
REMARK  249  A    between atoms: _591  and  _593
REMARK  250  A    between atoms: _593  and  _594
REMARK  251  A    between atoms: _593  and  _596
REMARK  252  A    between atoms: _596  and  _597
REMARK  253  A    between atoms: _597  and  _598
REMARK  254  A    between atoms: _601  and  _603
REMARK  255  A    between atoms: _603  and  _604
REMARK  256  A    between atoms: _606  and  _608
REMARK  257  A    between atoms: _608  and  _609
REMARK  258  A    between atoms: _608  and  _611
REMARK  259  A    between atoms: _611  and  _612
REMARK                            x       y       z     vdW  Elec       q    Type
REMARK                         _______ _______ _______ _____ _____    ______ ____
ROOT
ATOM      1  O   HOH     1       6.099  76.234  31.827  0.00  0.00    +0.000 OA
ENDROOT
TORSDOF 0
REMARK  Name = ../refined-set-2016/4jne/4jne_pocket.pdb
REMARK  259 active torsions:
REMARK  status: ('A' for Active; 'I' for Inactive)
REMARK    1  A    between atoms: _1  and  _3
REMARK    2  A    between atoms: _3  and  _4
REMARK    3  A    between atoms: _3  and  _6
REMARK    4  A    between atoms: _6  and  _7
REMARK    5  A    between atoms: _10  and  _12
REMARK    6  A    between atoms: _12  and  _13
REMARK    7  A    between atoms: _12  and  _15
REMARK    8  A    between atoms: _15  and  _16
REMARK    9  A    between atoms: _19  and  _21
REMARK   10  A    between atoms: _21  and  _22
REMARK   11  A    between atoms: _24  and  _26
REMARK   12  A    between atoms: _26  and  _27
REMARK   13  A    between atoms: _26  and  _29
REMARK   14  A    between atoms: _29  and  _30
REMARK   15  A    between atoms: _33  and  _35
REMARK   16  A    between atoms: _35  and  _36
REMARK   17  A    between atoms: _35  and  _38
REMARK   18  A    between atoms: _38  and  _39
REMARK   19  A    between atoms: _42  and  _44
REMARK   20  A    between atoms: _44  and  _45
REMARK   21  A    between atoms: _44  and  _47
REMARK   22  A    between atoms: _47  and  _48
REMARK   23  A    between atoms: _53  and  _55
REMARK   24  A    between atoms: _55  and  _56
REMARK   25  A    between atoms: _55  and  _58
REMARK   26  A    between atoms: _58  and  _59
REMARK   27  A    between atoms: _61  and  _63
REMARK   28  A    between atoms: _63  and  _64
REMARK   29  A    between atoms: _63  and  _66
REMARK   30  A    between atoms: _68  and  _70
REMARK   31  A    between atoms: _70  and  _71
REMARK   32  A    between atoms: _70  and  _73
REMARK   33  A    between atoms: _73  and  _74
REMARK   34  A    between atoms: _77  and  _79
REMARK   35  A    between atoms: _79  and  _80
REMARK   36  A    between atoms: _79  and  _82
REMARK   37  A    between atoms: _82  and  _83
REMARK   38  A    between atoms: _87  and  _88
REMARK   39  A    between atoms: _93  and  _95
REMARK   40  A    between atoms: _95  and  _96
REMARK   41  A    between atoms: _95  and  _98
REMARK   42  A    between atoms: _98  and  _99
REMARK   43  A    between atoms: _101  and  _103
REMARK   44  A    between atoms: _103  and  _104
REMARK   45  A    between atoms: _103  and  _106
REMARK   46  A    between atoms: _106  and  _107
REMARK   47  A    between atoms: _107  and  _108
REMARK   48  A    between atoms: _108  and  _109
REMARK   49  A    between atoms: _109  and  _110
REMARK   50  A    between atoms: _114  and  _116
REMARK   51  A    between atoms: _116  and  _117
REMARK   52  A    between atoms: _120  and  _122
REMARK   53  A    between atoms: _122  and  _123
REMARK   54  A    between atoms: _122  and  _125
REMARK   55  A    between atoms: _125  and  _126
REMARK   56  A    between atoms: _126  and  _127
REMARK   57  A    between atoms: _127  and  _128
REMARK   58  A    between atoms: _128  and  _129
REMARK   59  A    between atoms: _133  and  _135
REMARK   60  A    between atoms: _135  and  _136
REMARK   61  A    between atoms: _135  and  _138
REMARK   62  A    between atoms: _138  and  _139
REMARK   63  A    between atoms: _139  and  _140
REMARK   64  A    between atoms: _140  and  _141
REMARK   65  A    between atoms: _150  and  _152
REMARK   66  A    between atoms: _152  and  _153
REMARK   67  A    between atoms: _152  and  _155
REMARK   68  A    between atoms: _155  and  _156
REMARK   69  A    between atoms: _159  and  _161
REMARK   70  A    between atoms: _161  and  _162
REMARK   71  A    between atoms: _161  and  _164
REMARK   72  A    between atoms: _168  and  _169
REMARK   73  A    between atoms: _174  and  _176
REMARK   74  A    between atoms: _176  and  _177
REMARK   75  A    between atoms: _180  and  _182
REMARK   76  A    between atoms: _182  and  _183
REMARK   77  A    between atoms: _182  and  _185
REMARK   78  A    between atoms: _185  and  _186
REMARK   79  A    between atoms: _192  and  _194
REMARK   80  A    between atoms: _194  and  _195
REMARK   81  A    between atoms: _194  and  _197
REMARK   82  A    between atoms: _197  and  _198
REMARK   83  A    between atoms: _198  and  _199
REMARK   84  A    between atoms: _202  and  _204
REMARK   85  A    between atoms: _204  and  _205
REMARK   86  A    between atoms: _204  and  _207
REMARK   87  A    between atoms: _207  and  _208
REMARK   88  A    between atoms: _211  and  _213
REMARK   89  A    between atoms: _213  and  _214
REMARK   90  A    between atoms: _213  and  _216
REMARK   91  A    between atoms: _216  and  _217
REMARK   92  A    between atoms: _220  and  _222
REMARK   93  A    between atoms: _222  and  _223
REMARK   94  A    between atoms: _225  and  _227
REMARK   95  A    between atoms: _227  and  _228
REMARK   96  A    between atoms: _230  and  _232
REMARK   97  A    between atoms: _232  and  _233
REMARK   98  A    between atoms: _235  and  _237
REMARK   99  A    between atoms: _237  and  _238
REMARK  100  A    between atoms: _241  and  _243
REMARK  101  A    between atoms: _243  and  _244
REMARK  102  A    between atoms: _243  and  _246
REMARK  103  A    between atoms: _246  and  _247
REMARK  104  A    between atoms: _253  and  _255
REMARK  105  A    between atoms: _255  and  _256
REMARK  106  A    between atoms: _255  and  _258
REMARK  107  A    between atoms: _258  and  _259
REMARK  108  A    between atoms: _262  and  _264
REMARK  109  A    between atoms: _264  and  _265
REMARK  110  A    between atoms: _264  and  _267
REMARK  111  A    between atoms: _267  and  _268
REMARK  112  A    between atoms: _271  and  _273
REMARK  113  A    between atoms: _273  and  _274
REMARK  114  A    between atoms: _273  and  _276
REMARK  115  A    between atoms: _276  and  _277
REMARK  116  A    between atoms: _280  and  _282
REMARK  117  A    between atoms: _282  and  _283
REMARK  118  A    between atoms: _282  and  _285
REMARK  119  A    between atoms: _285  and  _286
REMARK  120  A    between atoms: _289  and  _291
REMARK  121  A    between atoms: _291  and  _292
REMARK  122  A    between atoms: _294  and  _296
REMARK  123  A    between atoms: _296  and  _297
REMARK  124  A    between atoms: _299  and  _301
REMARK  125  A    between atoms: _301  and  _302
REMARK  126  A    between atoms: _301  and  _304
REMARK  127  A    between atoms: _304  and  _305
REMARK  128  A    between atoms: _305  and  _306
REMARK  129  A    between atoms: _309  and  _311
REMARK  130  A    between atoms: _311  and  _312
REMARK  131  A    between atoms: _311  and  _314
REMARK  132  A    between atoms: _314  and  _315
REMARK  133  A    between atoms: _318  and  _320
REMARK  134  A    between atoms: _320  and  _321
REMARK  135  A    between atoms: _320  and  _323
REMARK  136  A    between atoms: _323  and  _324
REMARK  137  A    between atoms: _330  and  _332
REMARK  138  A    between atoms: _332  and  _333
REMARK  139  A    between atoms: _332  and  _335
REMARK  140  A    between atoms: _335  and  _336
REMARK  141  A    between atoms: _339  and  _341
REMARK  142  A    between atoms: _341  and  _342
REMARK  143  A    between atoms: _341  and  _344
REMARK  144  A    between atoms: _344  and  _345
REMARK  145  A    between atoms: _345  and  _346
REMARK  146  A    between atoms: _346  and  _347
REMARK  147  A    between atoms: _347  and  _348
REMARK  148  A    between atoms: _352  and  _354
REMARK  149  A    between atoms: _354  and  _355
REMARK  150  A    between atoms: _358  and  _360
REMARK  151  A    between atoms: _360  and  _361
REMARK  152  A    between atoms: _360  and  _363
REMARK  153  A    between atoms: _363  and  _364
REMARK  154  A    between atoms: _364  and  _365
REMARK  155  A    between atoms: _368  and  _370
REMARK  156  A    between atoms: _370  and  _371
REMARK  157  A    between atoms: _370  and  _373
REMARK  158  A    between atoms: _373  and  _374
REMARK  159  A    between atoms: _374  and  _375
REMARK  160  A    between atoms: _375  and  _376
REMARK  161  A    between atoms: _376  and  _377
REMARK  162  A    between atoms: _381  and  _383
REMARK  163  A    between atoms: _383  and  _384
REMARK  164  A    between atoms: _387  and  _389
REMARK  165  A    between atoms: _389  and  _390
REMARK  166  A    between atoms: _389  and  _392
REMARK  167  A    between atoms: _392  and  _393
REMARK  168  A    between atoms: _393  and  _394
REMARK  169  A    between atoms: _394  and  _395
REMARK  170  A    between atoms: _395  and  _396
REMARK  171  A    between atoms: _400  and  _402
REMARK  172  A    between atoms: _402  and  _403
REMARK  173  A    between atoms: _402  and  _405
REMARK  174  A    between atoms: _405  and  _406
REMARK  175  A    between atoms: _409  and  _411
REMARK  176  A    between atoms: _411  and  _412
REMARK  177  A    between atoms: _411  and  _414
REMARK  178  A    between atoms: _414  and  _415
REMARK  179  A    between atoms: _415  and  _416
REMARK  180  A    between atoms: _419  and  _421
REMARK  181  A    between atoms: _421  and  _422
REMARK  182  A    between atoms: _421  and  _424
REMARK  183  A    between atoms: _424  and  _425
REMARK  184  A    between atoms: _428  and  _430
REMARK  185  A    between atoms: _430  and  _431
REMARK  186  A    between atoms: _430  and  _433
REMARK  187  A    between atoms: _433  and  _434
REMARK  188  A    between atoms: _436  and  _438
REMARK  189  A    between atoms: _438  and  _439
REMARK  190  A    between atoms: _438  and  _441
REMARK  191  A    between atoms: _441  and  _442
REMARK  192  A    between atoms: _444  and  _446
REMARK  193  A    between atoms: _446  and  _447
REMARK  194  A    between atoms: _450  and  _452
REMARK  195  A    between atoms: _452  and  _453
REMARK  196  A    between atoms: _452  and  _455
REMARK  197  A    between atoms: _455  and  _456
REMARK  198  A    between atoms: _459  and  _461
REMARK  199  A    between atoms: _461  and  _462
REMARK  200  A    between atoms: _461  and  _464
REMARK  201  A    between atoms: _467  and  _469
REMARK  202  A    between atoms: _469  and  _470
REMARK  203  A    between atoms: _472  and  _474
REMARK  204  A    between atoms: _474  and  _475
REMARK  205  A    between atoms: _477  and  _479
REMARK  206  A    between atoms: _479  and  _480
REMARK  207  A    between atoms: _479  and  _482
REMARK  208  A    between atoms: _482  and  _483
REMARK  209  A    between atoms: _483  and  _484
REMARK  210  A    between atoms: _489  and  _491
REMARK  211  A    between atoms: _491  and  _492
REMARK  212  A    between atoms: _491  and  _494
REMARK  213  A    between atoms: _494  and  _495
REMARK  214  A    between atoms: _498  and  _500
REMARK  215  A    between atoms: _500  and  _501
REMARK  216  A    between atoms: _500  and  _503
REMARK  217  A    between atoms: _503  and  _504
REMARK  218  A    between atoms: _504  and  _505
REMARK  219  A    between atoms: _505  and  _506
REMARK  220  A    between atoms: _515  and  _517
REMARK  221  A    between atoms: _517  and  _518
REMARK  222  A    between atoms: _517  and  _520
REMARK  223  A    between atoms: _520  and  _521
REMARK  224  A    between atoms: _521  and  _522
REMARK  225  A    between atoms: _525  and  _526
REMARK  226  A    between atoms: _531  and  _533
REMARK  227  A    between atoms: _533  and  _534
REMARK  228  A    between atoms: _533  and  _536
REMARK  229  A    between atoms: _539  and  _541
REMARK  230  A    between atoms: _541  and  _542
REMARK  231  A    between atoms: _541  and  _544
REMARK  232  A    between atoms: _544  and  _545
REMARK  233  A    between atoms: _545  and  _546
REMARK  234  A    between atoms: _552  and  _553
REMARK  235  A    between atoms: _558  and  _560
REMARK  236  A    between atoms: _560  and  _561
REMARK  237  A    between atoms: _560  and  _563
REMARK  238  A    between atoms: _563  and  _564
REMARK  239  A    between atoms: _567  and  _569
REMARK  240  A    between atoms: _569  and  _570
REMARK  241  A    between atoms: _569  and  _572
REMARK  242  A    between atoms: _572  and  _573
REMARK  243  A    between atoms: _573  and  _574
REMARK  244  A    between atoms: _577  and  _579
REMARK  245  A    between atoms: _579  and  _580
REMARK  246  A    between atoms: _579  and  _582
REMARK  247  A    between atoms: _585  and  _587
REMARK  248  A    between atoms: _587  and  _588
REMARK  249  A    between atoms: _591  and  _593
REMARK  250  A    between atoms: _593  and  _594
REMARK  251  A    between atoms: _593  and  _596
REMARK  252  A    between atoms: _596  and  _597
REMARK  253  A    between atoms: _597  and  _598
REMARK  254  A    between atoms: _601  and  _603
REMARK  255  A    between atoms: _603  and  _604
REMARK  256  A    between atoms: _606  and  _608
REMARK  257  A    between atoms: _608  and  _609
REMARK  258  A    between atoms: _608  and  _611
REMARK  259  A    between atoms: _611  and  _612
REMARK                            x       y       z     vdW  Elec       q    Type
REMARK                         _______ _______ _______ _____ _____    ______ ____
ROOT
ATOM      1  O   HOH     1      22.898  72.995  25.559  0.00  0.00    +0.000 OA
ENDROOT
TORSDOF 0
REMARK  Name = ../refined-set-2016/4jne/4jne_pocket.pdb
REMARK  259 active torsions:
REMARK  status: ('A' for Active; 'I' for Inactive)
REMARK    1  A    between atoms: _1  and  _3
REMARK    2  A    between atoms: _3  and  _4
REMARK    3  A    between atoms: _3  and  _6
REMARK    4  A    between atoms: _6  and  _7
REMARK    5  A    between atoms: _10  and  _12
REMARK    6  A    between atoms: _12  and  _13
REMARK    7  A    between atoms: _12  and  _15
REMARK    8  A    between atoms: _15  and  _16
REMARK    9  A    between atoms: _19  and  _21
REMARK   10  A    between atoms: _21  and  _22
REMARK   11  A    between atoms: _24  and  _26
REMARK   12  A    between atoms: _26  and  _27
REMARK   13  A    between atoms: _26  and  _29
REMARK   14  A    between atoms: _29  and  _30
REMARK   15  A    between atoms: _33  and  _35
REMARK   16  A    between atoms: _35  and  _36
REMARK   17  A    between atoms: _35  and  _38
REMARK   18  A    between atoms: _38  and  _39
REMARK   19  A    between atoms: _42  and  _44
REMARK   20  A    between atoms: _44  and  _45
REMARK   21  A    between atoms: _44  and  _47
REMARK   22  A    between atoms: _47  and  _48
REMARK   23  A    between atoms: _53  and  _55
REMARK   24  A    between atoms: _55  and  _56
REMARK   25  A    between atoms: _55  and  _58
REMARK   26  A    between atoms: _58  and  _59
REMARK   27  A    between atoms: _61  and  _63
REMARK   28  A    between atoms: _63  and  _64
REMARK   29  A    between atoms: _63  and  _66
REMARK   30  A    between atoms: _68  and  _70
REMARK   31  A    between atoms: _70  and  _71
REMARK   32  A    between atoms: _70  and  _73
REMARK   33  A    between atoms: _73  and  _74
REMARK   34  A    between atoms: _77  and  _79
REMARK   35  A    between atoms: _79  and  _80
REMARK   36  A    between atoms: _79  and  _82
REMARK   37  A    between atoms: _82  and  _83
REMARK   38  A    between atoms: _87  and  _88
REMARK   39  A    between atoms: _93  and  _95
REMARK   40  A    between atoms: _95  and  _96
REMARK   41  A    between atoms: _95  and  _98
REMARK   42  A    between atoms: _98  and  _99
REMARK   43  A    between atoms: _101  and  _103
REMARK   44  A    between atoms: _103  and  _104
REMARK   45  A    between atoms: _103  and  _106
REMARK   46  A    between atoms: _106  and  _107
REMARK   47  A    between atoms: _107  and  _108
REMARK   48  A    between atoms: _108  and  _109
REMARK   49  A    between atoms: _109  and  _110
REMARK   50  A    between atoms: _114  and  _116
REMARK   51  A    between atoms: _116  and  _117
REMARK   52  A    between atoms: _120  and  _122
REMARK   53  A    between atoms: _122  and  _123
REMARK   54  A    between atoms: _122  and  _125
REMARK   55  A    between atoms: _125  and  _126
REMARK   56  A    between atoms: _126  and  _127
REMARK   57  A    between atoms: _127  and  _128
REMARK   58  A    between atoms: _128  and  _129
REMARK   59  A    between atoms: _133  and  _135
REMARK   60  A    between atoms: _135  and  _136
REMARK   61  A    between atoms: _135  and  _138
REMARK   62  A    between atoms: _138  and  _139
REMARK   63  A    between atoms: _139  and  _140
REMARK   64  A    between atoms: _140  and  _141
REMARK   65  A    between atoms: _150  and  _152
REMARK   66  A    between atoms: _152  and  _153
REMARK   67  A    between atoms: _152  and  _155
REMARK   68  A    between atoms: _155  and  _156
REMARK   69  A    between atoms: _159  and  _161
REMARK   70  A    between atoms: _161  and  _162
REMARK   71  A    between atoms: _161  and  _164
REMARK   72  A    between atoms: _168  and  _169
REMARK   73  A    between atoms: _174  and  _176
REMARK   74  A    between atoms: _176  and  _177
REMARK   75  A    between atoms: _180  and  _182
REMARK   76  A    between atoms: _182  and  _183
REMARK   77  A    between atoms: _182  and  _185
REMARK   78  A    between atoms: _185  and  _186
REMARK   79  A    between atoms: _192  and  _194
REMARK   80  A    between atoms: _194  and  _195
REMARK   81  A    between atoms: _194  and  _197
REMARK   82  A    between atoms: _197  and  _198
REMARK   83  A    between atoms: _198  and  _199
REMARK   84  A    between atoms: _202  and  _204
REMARK   85  A    between atoms: _204  and  _205
REMARK   86  A    between atoms: _204  and  _207
REMARK   87  A    between atoms: _207  and  _208
REMARK   88  A    between atoms: _211  and  _213
REMARK   89  A    between atoms: _213  and  _214
REMARK   90  A    between atoms: _213  and  _216
REMARK   91  A    between atoms: _216  and  _217
REMARK   92  A    between atoms: _220  and  _222
REMARK   93  A    between atoms: _222  and  _223
REMARK   94  A    between atoms: _225  and  _227
REMARK   95  A    between atoms: _227  and  _228
REMARK   96  A    between atoms: _230  and  _232
REMARK   97  A    between atoms: _232  and  _233
REMARK   98  A    between atoms: _235  and  _237
REMARK   99  A    between atoms: _237  and  _238
REMARK  100  A    between atoms: _241  and  _243
REMARK  101  A    between atoms: _243  and  _244
REMARK  102  A    between atoms: _243  and  _246
REMARK  103  A    between atoms: _246  and  _247
REMARK  104  A    between atoms: _253  and  _255
REMARK  105  A    between atoms: _255  and  _256
REMARK  106  A    between atoms: _255  and  _258
REMARK  107  A    between atoms: _258  and  _259
REMARK  108  A    between atoms: _262  and  _264
REMARK  109  A    between atoms: _264  and  _265
REMARK  110  A    between atoms: _264  and  _267
REMARK  111  A    between atoms: _267  and  _268
REMARK  112  A    between atoms: _271  and  _273
REMARK  113  A    between atoms: _273  and  _274
REMARK  114  A    between atoms: _273  and  _276
REMARK  115  A    between atoms: _276  and  _277
REMARK  116  A    between atoms: _280  and  _282
REMARK  117  A    between atoms: _282  and  _283
REMARK  118  A    between atoms: _282  and  _285
REMARK  119  A    between atoms: _285  and  _286
REMARK  120  A    between atoms: _289  and  _291
REMARK  121  A    between atoms: _291  and  _292
REMARK  122  A    between atoms: _294  and  _296
REMARK  123  A    between atoms: _296  and  _297
REMARK  124  A    between atoms: _299  and  _301
REMARK  125  A    between atoms: _301  and  _302
REMARK  126  A    between atoms: _301  and  _304
REMARK  127  A    between atoms: _304  and  _305
REMARK  128  A    between atoms: _305  and  _306
REMARK  129  A    between atoms: _309  and  _311
REMARK  130  A    between atoms: _311  and  _312
REMARK  131  A    between atoms: _311  and  _314
REMARK  132  A    between atoms: _314  and  _315
REMARK  133  A    between atoms: _318  and  _320
REMARK  134  A    between atoms: _320  and  _321
REMARK  135  A    between atoms: _320  and  _323
REMARK  136  A    between atoms: _323  and  _324
REMARK  137  A    between atoms: _330  and  _332
REMARK  138  A    between atoms: _332  and  _333
REMARK  139  A    between atoms: _332  and  _335
REMARK  140  A    between atoms: _335  and  _336
REMARK  141  A    between atoms: _339  and  _341
REMARK  142  A    between atoms: _341  and  _342
REMARK  143  A    between atoms: _341  and  _344
REMARK  144  A    between atoms: _344  and  _345
REMARK  145  A    between atoms: _345  and  _346
REMARK  146  A    between atoms: _346  and  _347
REMARK  147  A    between atoms: _347  and  _348
REMARK  148  A    between atoms: _352  and  _354
REMARK  149  A    between atoms: _354  and  _355
REMARK  150  A    between atoms: _358  and  _360
REMARK  151  A    between atoms: _360  and  _361
REMARK  152  A    between atoms: _360  and  _363
REMARK  153  A    between atoms: _363  and  _364
REMARK  154  A    between atoms: _364  and  _365
REMARK  155  A    between atoms: _368  and  _370
REMARK  156  A    between atoms: _370  and  _371
REMARK  157  A    between atoms: _370  and  _373
REMARK  158  A    between atoms: _373  and  _374
REMARK  159  A    between atoms: _374  and  _375
REMARK  160  A    between atoms: _375  and  _376
REMARK  161  A    between atoms: _376  and  _377
REMARK  162  A    between atoms: _381  and  _383
REMARK  163  A    between atoms: _383  and  _384
REMARK  164  A    between atoms: _387  and  _389
REMARK  165  A    between atoms: _389  and  _390
REMARK  166  A    between atoms: _389  and  _392
REMARK  167  A    between atoms: _392  and  _393
REMARK  168  A    between atoms: _393  and  _394
REMARK  169  A    between atoms: _394  and  _395
REMARK  170  A    between atoms: _395  and  _396
REMARK  171  A    between atoms: _400  and  _402
REMARK  172  A    between atoms: _402  and  _403
REMARK  173  A    between atoms: _402  and  _405
REMARK  174  A    between atoms: _405  and  _406
REMARK  175  A    between atoms: _409  and  _411
REMARK  176  A    between atoms: _411  and  _412
REMARK  177  A    between atoms: _411  and  _414
REMARK  178  A    between atoms: _414  and  _415
REMARK  179  A    between atoms: _415  and  _416
REMARK  180  A    between atoms: _419  and  _421
REMARK  181  A    between atoms: _421  and  _422
REMARK  182  A    between atoms: _421  and  _424
REMARK  183  A    between atoms: _424  and  _425
REMARK  184  A    between atoms: _428  and  _430
REMARK  185  A    between atoms: _430  and  _431
REMARK  186  A    between atoms: _430  and  _433
REMARK  187  A    between atoms: _433  and  _434
REMARK  188  A    between atoms: _436  and  _438
REMARK  189  A    between atoms: _438  and  _439
REMARK  190  A    between atoms: _438  and  _441
REMARK  191  A    between atoms: _441  and  _442
REMARK  192  A    between atoms: _444  and  _446
REMARK  193  A    between atoms: _446  and  _447
REMARK  194  A    between atoms: _450  and  _452
REMARK  195  A    between atoms: _452  and  _453
REMARK  196  A    between atoms: _452  and  _455
REMARK  197  A    between atoms: _455  and  _456
REMARK  198  A    between atoms: _459  and  _461
REMARK  199  A    between atoms: _461  and  _462
REMARK  200  A    between atoms: _461  and  _464
REMARK  201  A    between atoms: _467  and  _469
REMARK  202  A    between atoms: _469  and  _470
REMARK  203  A    between atoms: _472  and  _474
REMARK  204  A    between atoms: _474  and  _475
REMARK  205  A    between atoms: _477  and  _479
REMARK  206  A    between atoms: _479  and  _480
REMARK  207  A    between atoms: _479  and  _482
REMARK  208  A    between atoms: _482  and  _483
REMARK  209  A    between atoms: _483  and  _484
REMARK  210  A    between atoms: _489  and  _491
REMARK  211  A    between atoms: _491  and  _492
REMARK  212  A    between atoms: _491  and  _494
REMARK  213  A    between atoms: _494  and  _495
REMARK  214  A    between atoms: _498  and  _500
REMARK  215  A    between atoms: _500  and  _501
REMARK  216  A    between atoms: _500  and  _503
REMARK  217  A    between atoms: _503  and  _504
REMARK  218  A    between atoms: _504  and  _505
REMARK  219  A    between atoms: _505  and  _506
REMARK  220  A    between atoms: _515  and  _517
REMARK  221  A    between atoms: _517  and  _518
REMARK  222  A    between atoms: _517  and  _520
REMARK  223  A    between atoms: _520  and  _521
REMARK  224  A    between atoms: _521  and  _522
REMARK  225  A    between atoms: _525  and  _526
REMARK  226  A    between atoms: _531  and  _533
REMARK  227  A    between atoms: _533  and  _534
REMARK  228  A    between atoms: _533  and  _536
REMARK  229  A    between atoms: _539  and  _541
REMARK  230  A    between atoms: _541  and  _542
REMARK  231  A    between atoms: _541  and  _544
REMARK  232  A    between atoms: _544  and  _545
REMARK  233  A    between atoms: _545  and  _546
REMARK  234  A    between atoms: _552  and  _553
REMARK  235  A    between atoms: _558  and  _560
REMARK  236  A    between atoms: _560  and  _561
REMARK  237  A    between atoms: _560  and  _563
REMARK  238  A    between atoms: _563  and  _564
REMARK  239  A    between atoms: _567  and  _569
REMARK  240  A    between atoms: _569  and  _570
REMARK  241  A    between atoms: _569  and  _572
REMARK  242  A    between atoms: _572  and  _573
REMARK  243  A    between atoms: _573  and  _574
REMARK  244  A    between atoms: _577  and  _579
REMARK  245  A    between atoms: _579  and  _580
REMARK  246  A    between atoms: _579  and  _582
REMARK  247  A    between atoms: _585  and  _587
REMARK  248  A    between atoms: _587  and  _588
REMARK  249  A    between atoms: _591  and  _593
REMARK  250  A    between atoms: _593  and  _594
REMARK  251  A    between atoms: _593  and  _596
REMARK  252  A    between atoms: _596  and  _597
REMARK  253  A    between atoms: _597  and  _598
REMARK  254  A    between atoms: _601  and  _603
REMARK  255  A    between atoms: _603  and  _604
REMARK  256  A    between atoms: _606  and  _608
REMARK  257  A    between atoms: _608  and  _609
REMARK  258  A    between atoms: _608  and  _611
REMARK  259  A    between atoms: _611  and  _612
REMARK                            x       y       z     vdW  Elec       q    Type
REMARK                         _______ _______ _______ _____ _____    ______ ____
ROOT
ATOM      1  O   HOH     1      29.835  75.751  36.574  0.00  0.00    +0.000 OA
ENDROOT
TORSDOF 0
REMARK  Name = ../refined-set-2016/4jne/4jne_pocket.pdb
REMARK  259 active torsions:
REMARK  status: ('A' for Active; 'I' for Inactive)
REMARK    1  A    between atoms: _1  and  _3
REMARK    2  A    between atoms: _3  and  _4
REMARK    3  A    between atoms: _3  and  _6
REMARK    4  A    between atoms: _6  and  _7
REMARK    5  A    between atoms: _10  and  _12
REMARK    6  A    between atoms: _12  and  _13
REMARK    7  A    between atoms: _12  and  _15
REMARK    8  A    between atoms: _15  and  _16
REMARK    9  A    between atoms: _19  and  _21
REMARK   10  A    between atoms: _21  and  _22
REMARK   11  A    between atoms: _24  and  _26
REMARK   12  A    between atoms: _26  and  _27
REMARK   13  A    between atoms: _26  and  _29
REMARK   14  A    between atoms: _29  and  _30
REMARK   15  A    between atoms: _33  and  _35
REMARK   16  A    between atoms: _35  and  _36
REMARK   17  A    between atoms: _35  and  _38
REMARK   18  A    between atoms: _38  and  _39
REMARK   19  A    between atoms: _42  and  _44
REMARK   20  A    between atoms: _44  and  _45
REMARK   21  A    between atoms: _44  and  _47
REMARK   22  A    between atoms: _47  and  _48
REMARK   23  A    between atoms: _53  and  _55
REMARK   24  A    between atoms: _55  and  _56
REMARK   25  A    between atoms: _55  and  _58
REMARK   26  A    between atoms: _58  and  _59
REMARK   27  A    between atoms: _61  and  _63
REMARK   28  A    between atoms: _63  and  _64
REMARK   29  A    between atoms: _63  and  _66
REMARK   30  A    between atoms: _68  and  _70
REMARK   31  A    between atoms: _70  and  _71
REMARK   32  A    between atoms: _70  and  _73
REMARK   33  A    between atoms: _73  and  _74
REMARK   34  A    between atoms: _77  and  _79
REMARK   35  A    between atoms: _79  and  _80
REMARK   36  A    between atoms: _79  and  _82
REMARK   37  A    between atoms: _82  and  _83
REMARK   38  A    between atoms: _87  and  _88
REMARK   39  A    between atoms: _93  and  _95
REMARK   40  A    between atoms: _95  and  _96
REMARK   41  A    between atoms: _95  and  _98
REMARK   42  A    between atoms: _98  and  _99
REMARK   43  A    between atoms: _101  and  _103
REMARK   44  A    between atoms: _103  and  _104
REMARK   45  A    between atoms: _103  and  _106
REMARK   46  A    between atoms: _106  and  _107
REMARK   47  A    between atoms: _107  and  _108
REMARK   48  A    between atoms: _108  and  _109
REMARK   49  A    between atoms: _109  and  _110
REMARK   50  A    between atoms: _114  and  _116
REMARK   51  A    between atoms: _116  and  _117
REMARK   52  A    between atoms: _120  and  _122
REMARK   53  A    between atoms: _122  and  _123
REMARK   54  A    between atoms: _122  and  _125
REMARK   55  A    between atoms: _125  and  _126
REMARK   56  A    between atoms: _126  and  _127
REMARK   57  A    between atoms: _127  and  _128
REMARK   58  A    between atoms: _128  and  _129
REMARK   59  A    between atoms: _133  and  _135
REMARK   60  A    between atoms: _135  and  _136
REMARK   61  A    between atoms: _135  and  _138
REMARK   62  A    between atoms: _138  and  _139
REMARK   63  A    between atoms: _139  and  _140
REMARK   64  A    between atoms: _140  and  _141
REMARK   65  A    between atoms: _150  and  _152
REMARK   66  A    between atoms: _152  and  _153
REMARK   67  A    between atoms: _152  and  _155
REMARK   68  A    between atoms: _155  and  _156
REMARK   69  A    between atoms: _159  and  _161
REMARK   70  A    between atoms: _161  and  _162
REMARK   71  A    between atoms: _161  and  _164
REMARK   72  A    between atoms: _168  and  _169
REMARK   73  A    between atoms: _174  and  _176
REMARK   74  A    between atoms: _176  and  _177
REMARK   75  A    between atoms: _180  and  _182
REMARK   76  A    between atoms: _182  and  _183
REMARK   77  A    between atoms: _182  and  _185
REMARK   78  A    between atoms: _185  and  _186
REMARK   79  A    between atoms: _192  and  _194
REMARK   80  A    between atoms: _194  and  _195
REMARK   81  A    between atoms: _194  and  _197
REMARK   82  A    between atoms: _197  and  _198
REMARK   83  A    between atoms: _198  and  _199
REMARK   84  A    between atoms: _202  and  _204
REMARK   85  A    between atoms: _204  and  _205
REMARK   86  A    between atoms: _204  and  _207
REMARK   87  A    between atoms: _207  and  _208
REMARK   88  A    between atoms: _211  and  _213
REMARK   89  A    between atoms: _213  and  _214
REMARK   90  A    between atoms: _213  and  _216
REMARK   91  A    between atoms: _216  and  _217
REMARK   92  A    between atoms: _220  and  _222
REMARK   93  A    between atoms: _222  and  _223
REMARK   94  A    between atoms: _225  and  _227
REMARK   95  A    between atoms: _227  and  _228
REMARK   96  A    between atoms: _230  and  _232
REMARK   97  A    between atoms: _232  and  _233
REMARK   98  A    between atoms: _235  and  _237
REMARK   99  A    between atoms: _237  and  _238
REMARK  100  A    between atoms: _241  and  _243
REMARK  101  A    between atoms: _243  and  _244
REMARK  102  A    between atoms: _243  and  _246
REMARK  103  A    between atoms: _246  and  _247
REMARK  104  A    between atoms: _253  and  _255
REMARK  105  A    between atoms: _255  and  _256
REMARK  106  A    between atoms: _255  and  _258
REMARK  107  A    between atoms: _258  and  _259
REMARK  108  A    between atoms: _262  and  _264
REMARK  109  A    between atoms: _264  and  _265
REMARK  110  A    between atoms: _264  and  _267
REMARK  111  A    between atoms: _267  and  _268
REMARK  112  A    between atoms: _271  and  _273
REMARK  113  A    between atoms: _273  and  _274
REMARK  114  A    between atoms: _273  and  _276
REMARK  115  A    between atoms: _276  and  _277
REMARK  116  A    between atoms: _280  and  _282
REMARK  117  A    between atoms: _282  and  _283
REMARK  118  A    between atoms: _282  and  _285
REMARK  119  A    between atoms: _285  and  _286
REMARK  120  A    between atoms: _289  and  _291
REMARK  121  A    between atoms: _291  and  _292
REMARK  122  A    between atoms: _294  and  _296
REMARK  123  A    between atoms: _296  and  _297
REMARK  124  A    between atoms: _299  and  _301
REMARK  125  A    between atoms: _301  and  _302
REMARK  126  A    between atoms: _301  and  _304
REMARK  127  A    between atoms: _304  and  _305
REMARK  128  A    between atoms: _305  and  _306
REMARK  129  A    between atoms: _309  and  _311
REMARK  130  A    between atoms: _311  and  _312
REMARK  131  A    between atoms: _311  and  _314
REMARK  132  A    between atoms: _314  and  _315
REMARK  133  A    between atoms: _318  and  _320
REMARK  134  A    between atoms: _320  and  _321
REMARK  135  A    between atoms: _320  and  _323
REMARK  136  A    between atoms: _323  and  _324
REMARK  137  A    between atoms: _330  and  _332
REMARK  138  A    between atoms: _332  and  _333
REMARK  139  A    between atoms: _332  and  _335
REMARK  140  A    between atoms: _335  and  _336
REMARK  141  A    between atoms: _339  and  _341
REMARK  142  A    between atoms: _341  and  _342
REMARK  143  A    between atoms: _341  and  _344
REMARK  144  A    between atoms: _344  and  _345
REMARK  145  A    between atoms: _345  and  _346
REMARK  146  A    between atoms: _346  and  _347
REMARK  147  A    between atoms: _347  and  _348
REMARK  148  A    between atoms: _352  and  _354
REMARK  149  A    between atoms: _354  and  _355
REMARK  150  A    between atoms: _358  and  _360
REMARK  151  A    between atoms: _360  and  _361
REMARK  152  A    between atoms: _360  and  _363
REMARK  153  A    between atoms: _363  and  _364
REMARK  154  A    between atoms: _364  and  _365
REMARK  155  A    between atoms: _368  and  _370
REMARK  156  A    between atoms: _370  and  _371
REMARK  157  A    between atoms: _370  and  _373
REMARK  158  A    between atoms: _373  and  _374
REMARK  159  A    between atoms: _374  and  _375
REMARK  160  A    between atoms: _375  and  _376
REMARK  161  A    between atoms: _376  and  _377
REMARK  162  A    between atoms: _381  and  _383
REMARK  163  A    between atoms: _383  and  _384
REMARK  164  A    between atoms: _387  and  _389
REMARK  165  A    between atoms: _389  and  _390
REMARK  166  A    between atoms: _389  and  _392
REMARK  167  A    between atoms: _392  and  _393
REMARK  168  A    between atoms: _393  and  _394
REMARK  169  A    between atoms: _394  and  _395
REMARK  170  A    between atoms: _395  and  _396
REMARK  171  A    between atoms: _400  and  _402
REMARK  172  A    between atoms: _402  and  _403
REMARK  173  A    between atoms: _402  and  _405
REMARK  174  A    between atoms: _405  and  _406
REMARK  175  A    between atoms: _409  and  _411
REMARK  176  A    between atoms: _411  and  _412
REMARK  177  A    between atoms: _411  and  _414
REMARK  178  A    between atoms: _414  and  _415
REMARK  179  A    between atoms: _415  and  _416
REMARK  180  A    between atoms: _419  and  _421
REMARK  181  A    between atoms: _421  and  _422
REMARK  182  A    between atoms: _421  and  _424
REMARK  183  A    between atoms: _424  and  _425
REMARK  184  A    between atoms: _428  and  _430
REMARK  185  A    between atoms: _430  and  _431
REMARK  186  A    between atoms: _430  and  _433
REMARK  187  A    between atoms: _433  and  _434
REMARK  188  A    between atoms: _436  and  _438
REMARK  189  A    between atoms: _438  and  _439
REMARK  190  A    between atoms: _438  and  _441
REMARK  191  A    between atoms: _441  and  _442
REMARK  192  A    between atoms: _444  and  _446
REMARK  193  A    between atoms: _446  and  _447
REMARK  194  A    between atoms: _450  and  _452
REMARK  195  A    between atoms: _452  and  _453
REMARK  196  A    between atoms: _452  and  _455
REMARK  197  A    between atoms: _455  and  _456
REMARK  198  A    between atoms: _459  and  _461
REMARK  199  A    between atoms: _461  and  _462
REMARK  200  A    between atoms: _461  and  _464
REMARK  201  A    between atoms: _467  and  _469
REMARK  202  A    between atoms: _469  and  _470
REMARK  203  A    between atoms: _472  and  _474
REMARK  204  A    between atoms: _474  and  _475
REMARK  205  A    between atoms: _477  and  _479
REMARK  206  A    between atoms: _479  and  _480
REMARK  207  A    between atoms: _479  and  _482
REMARK  208  A    between atoms: _482  and  _483
REMARK  209  A    between atoms: _483  and  _484
REMARK  210  A    between atoms: _489  and  _491
REMARK  211  A    between atoms: _491  and  _492
REMARK  212  A    between atoms: _491  and  _494
REMARK  213  A    between atoms: _494  and  _495
REMARK  214  A    between atoms: _498  and  _500
REMARK  215  A    between atoms: _500  and  _501
REMARK  216  A    between atoms: _500  and  _503
REMARK  217  A    between atoms: _503  and  _504
REMARK  218  A    between atoms: _504  and  _505
REMARK  219  A    between atoms: _505  and  _506
REMARK  220  A    between atoms: _515  and  _517
REMARK  221  A    between atoms: _517  and  _518
REMARK  222  A    between atoms: _517  and  _520
REMARK  223  A    between atoms: _520  and  _521
REMARK  224  A    between atoms: _521  and  _522
REMARK  225  A    between atoms: _525  and  _526
REMARK  226  A    between atoms: _531  and  _533
REMARK  227  A    between atoms: _533  and  _534
REMARK  228  A    between atoms: _533  and  _536
REMARK  229  A    between atoms: _539  and  _541
REMARK  230  A    between atoms: _541  and  _542
REMARK  231  A    between atoms: _541  and  _544
REMARK  232  A    between atoms: _544  and  _545
REMARK  233  A    between atoms: _545  and  _546
REMARK  234  A    between atoms: _552  and  _553
REMARK  235  A    between atoms: _558  and  _560
REMARK  236  A    between atoms: _560  and  _561
REMARK  237  A    between atoms: _560  and  _563
REMARK  238  A    between atoms: _563  and  _564
REMARK  239  A    between atoms: _567  and  _569
REMARK  240  A    between atoms: _569  and  _570
REMARK  241  A    between atoms: _569  and  _572
REMARK  242  A    between atoms: _572  and  _573
REMARK  243  A    between atoms: _573  and  _574
REMARK  244  A    between atoms: _577  and  _579
REMARK  245  A    between atoms: _579  and  _580
REMARK  246  A    between atoms: _579  and  _582
REMARK  247  A    between atoms: _585  and  _587
REMARK  248  A    between atoms: _587  and  _588
REMARK  249  A    between atoms: _591  and  _593
REMARK  250  A    between atoms: _593  and  _594
REMARK  251  A    between atoms: _593  and  _596
REMARK  252  A    between atoms: _596  and  _597
REMARK  253  A    between atoms: _597  and  _598
REMARK  254  A    between atoms: _601  and  _603
REMARK  255  A    between atoms: _603  and  _604
REMARK  256  A    between atoms: _606  and  _608
REMARK  257  A    between atoms: _608  and  _609
REMARK  258  A    between atoms: _608  and  _611
REMARK  259  A    between atoms: _611  and  _612
REMARK                            x       y       z     vdW  Elec       q    Type
REMARK                         _______ _______ _______ _____ _____    ______ ____
ROOT
ATOM      1  O   HOH     1      22.575  77.279  28.187  0.00  0.00    +0.000 OA
ENDROOT
TORSDOF 0
REMARK  Name = ../refined-set-2016/4jne/4jne_pocket.pdb
REMARK  259 active torsions:
REMARK  status: ('A' for Active; 'I' for Inactive)
REMARK    1  A    between atoms: _1  and  _3
REMARK    2  A    between atoms: _3  and  _4
REMARK    3  A    between atoms: _3  and  _6
REMARK    4  A    between atoms: _6  and  _7
REMARK    5  A    between atoms: _10  and  _12
REMARK    6  A    between atoms: _12  and  _13
REMARK    7  A    between atoms: _12  and  _15
REMARK    8  A    between atoms: _15  and  _16
REMARK    9  A    between atoms: _19  and  _21
REMARK   10  A    between atoms: _21  and  _22
REMARK   11  A    between atoms: _24  and  _26
REMARK   12  A    between atoms: _26  and  _27
REMARK   13  A    between atoms: _26  and  _29
REMARK   14  A    between atoms: _29  and  _30
REMARK   15  A    between atoms: _33  and  _35
REMARK   16  A    between atoms: _35  and  _36
REMARK   17  A    between atoms: _35  and  _38
REMARK   18  A    between atoms: _38  and  _39
REMARK   19  A    between atoms: _42  and  _44
REMARK   20  A    between atoms: _44  and  _45
REMARK   21  A    between atoms: _44  and  _47
REMARK   22  A    between atoms: _47  and  _48
REMARK   23  A    between atoms: _53  and  _55
REMARK   24  A    between atoms: _55  and  _56
REMARK   25  A    between atoms: _55  and  _58
REMARK   26  A    between atoms: _58  and  _59
REMARK   27  A    between atoms: _61  and  _63
REMARK   28  A    between atoms: _63  and  _64
REMARK   29  A    between atoms: _63  and  _66
REMARK   30  A    between atoms: _68  and  _70
REMARK   31  A    between atoms: _70  and  _71
REMARK   32  A    between atoms: _70  and  _73
REMARK   33  A    between atoms: _73  and  _74
REMARK   34  A    between atoms: _77  and  _79
REMARK   35  A    between atoms: _79  and  _80
REMARK   36  A    between atoms: _79  and  _82
REMARK   37  A    between atoms: _82  and  _83
REMARK   38  A    between atoms: _87  and  _88
REMARK   39  A    between atoms: _93  and  _95
REMARK   40  A    between atoms: _95  and  _96
REMARK   41  A    between atoms: _95  and  _98
REMARK   42  A    between atoms: _98  and  _99
REMARK   43  A    between atoms: _101  and  _103
REMARK   44  A    between atoms: _103  and  _104
REMARK   45  A    between atoms: _103  and  _106
REMARK   46  A    between atoms: _106  and  _107
REMARK   47  A    between atoms: _107  and  _108
REMARK   48  A    between atoms: _108  and  _109
REMARK   49  A    between atoms: _109  and  _110
REMARK   50  A    between atoms: _114  and  _116
REMARK   51  A    between atoms: _116  and  _117
REMARK   52  A    between atoms: _120  and  _122
REMARK   53  A    between atoms: _122  and  _123
REMARK   54  A    between atoms: _122  and  _125
REMARK   55  A    between atoms: _125  and  _126
REMARK   56  A    between atoms: _126  and  _127
REMARK   57  A    between atoms: _127  and  _128
REMARK   58  A    between atoms: _128  and  _129
REMARK   59  A    between atoms: _133  and  _135
REMARK   60  A    between atoms: _135  and  _136
REMARK   61  A    between atoms: _135  and  _138
REMARK   62  A    between atoms: _138  and  _139
REMARK   63  A    between atoms: _139  and  _140
REMARK   64  A    between atoms: _140  and  _141
REMARK   65  A    between atoms: _150  and  _152
REMARK   66  A    between atoms: _152  and  _153
REMARK   67  A    between atoms: _152  and  _155
REMARK   68  A    between atoms: _155  and  _156
REMARK   69  A    between atoms: _159  and  _161
REMARK   70  A    between atoms: _161  and  _162
REMARK   71  A    between atoms: _161  and  _164
REMARK   72  A    between atoms: _168  and  _169
REMARK   73  A    between atoms: _174  and  _176
REMARK   74  A    between atoms: _176  and  _177
REMARK   75  A    between atoms: _180  and  _182
REMARK   76  A    between atoms: _182  and  _183
REMARK   77  A    between atoms: _182  and  _185
REMARK   78  A    between atoms: _185  and  _186
REMARK   79  A    between atoms: _192  and  _194
REMARK   80  A    between atoms: _194  and  _195
REMARK   81  A    between atoms: _194  and  _197
REMARK   82  A    between atoms: _197  and  _198
REMARK   83  A    between atoms: _198  and  _199
REMARK   84  A    between atoms: _202  and  _204
REMARK   85  A    between atoms: _204  and  _205
REMARK   86  A    between atoms: _204  and  _207
REMARK   87  A    between atoms: _207  and  _208
REMARK   88  A    between atoms: _211  and  _213
REMARK   89  A    between atoms: _213  and  _214
REMARK   90  A    between atoms: _213  and  _216
REMARK   91  A    between atoms: _216  and  _217
REMARK   92  A    between atoms: _220  and  _222
REMARK   93  A    between atoms: _222  and  _223
REMARK   94  A    between atoms: _225  and  _227
REMARK   95  A    between atoms: _227  and  _228
REMARK   96  A    between atoms: _230  and  _232
REMARK   97  A    between atoms: _232  and  _233
REMARK   98  A    between atoms: _235  and  _237
REMARK   99  A    between atoms: _237  and  _238
REMARK  100  A    between atoms: _241  and  _243
REMARK  101  A    between atoms: _243  and  _244
REMARK  102  A    between atoms: _243  and  _246
REMARK  103  A    between atoms: _246  and  _247
REMARK  104  A    between atoms: _253  and  _255
REMARK  105  A    between atoms: _255  and  _256
REMARK  106  A    between atoms: _255  and  _258
REMARK  107  A    between atoms: _258  and  _259
REMARK  108  A    between atoms: _262  and  _264
REMARK  109  A    between atoms: _264  and  _265
REMARK  110  A    between atoms: _264  and  _267
REMARK  111  A    between atoms: _267  and  _268
REMARK  112  A    between atoms: _271  and  _273
REMARK  113  A    between atoms: _273  and  _274
REMARK  114  A    between atoms: _273  and  _276
REMARK  115  A    between atoms: _276  and  _277
REMARK  116  A    between atoms: _280  and  _282
REMARK  117  A    between atoms: _282  and  _283
REMARK  118  A    between atoms: _282  and  _285
REMARK  119  A    between atoms: _285  and  _286
REMARK  120  A    between atoms: _289  and  _291
REMARK  121  A    between atoms: _291  and  _292
REMARK  122  A    between atoms: _294  and  _296
REMARK  123  A    between atoms: _296  and  _297
REMARK  124  A    between atoms: _299  and  _301
REMARK  125  A    between atoms: _301  and  _302
REMARK  126  A    between atoms: _301  and  _304
REMARK  127  A    between atoms: _304  and  _305
REMARK  128  A    between atoms: _305  and  _306
REMARK  129  A    between atoms: _309  and  _311
REMARK  130  A    between atoms: _311  and  _312
REMARK  131  A    between atoms: _311  and  _314
REMARK  132  A    between atoms: _314  and  _315
REMARK  133  A    between atoms: _318  and  _320
REMARK  134  A    between atoms: _320  and  _321
REMARK  135  A    between atoms: _320  and  _323
REMARK  136  A    between atoms: _323  and  _324
REMARK  137  A    between atoms: _330  and  _332
REMARK  138  A    between atoms: _332  and  _333
REMARK  139  A    between atoms: _332  and  _335
REMARK  140  A    between atoms: _335  and  _336
REMARK  141  A    between atoms: _339  and  _341
REMARK  142  A    between atoms: _341  and  _342
REMARK  143  A    between atoms: _341  and  _344
REMARK  144  A    between atoms: _344  and  _345
REMARK  145  A    between atoms: _345  and  _346
REMARK  146  A    between atoms: _346  and  _347
REMARK  147  A    between atoms: _347  and  _348
REMARK  148  A    between atoms: _352  and  _354
REMARK  149  A    between atoms: _354  and  _355
REMARK  150  A    between atoms: _358  and  _360
REMARK  151  A    between atoms: _360  and  _361
REMARK  152  A    between atoms: _360  and  _363
REMARK  153  A    between atoms: _363  and  _364
REMARK  154  A    between atoms: _364  and  _365
REMARK  155  A    between atoms: _368  and  _370
REMARK  156  A    between atoms: _370  and  _371
REMARK  157  A    between atoms: _370  and  _373
REMARK  158  A    between atoms: _373  and  _374
REMARK  159  A    between atoms: _374  and  _375
REMARK  160  A    between atoms: _375  and  _376
REMARK  161  A    between atoms: _376  and  _377
REMARK  162  A    between atoms: _381  and  _383
REMARK  163  A    between atoms: _383  and  _384
REMARK  164  A    between atoms: _387  and  _389
REMARK  165  A    between atoms: _389  and  _390
REMARK  166  A    between atoms: _389  and  _392
REMARK  167  A    between atoms: _392  and  _393
REMARK  168  A    between atoms: _393  and  _394
REMARK  169  A    between atoms: _394  and  _395
REMARK  170  A    between atoms: _395  and  _396
REMARK  171  A    between atoms: _400  and  _402
REMARK  172  A    between atoms: _402  and  _403
REMARK  173  A    between atoms: _402  and  _405
REMARK  174  A    between atoms: _405  and  _406
REMARK  175  A    between atoms: _409  and  _411
REMARK  176  A    between atoms: _411  and  _412
REMARK  177  A    between atoms: _411  and  _414
REMARK  178  A    between atoms: _414  and  _415
REMARK  179  A    between atoms: _415  and  _416
REMARK  180  A    between atoms: _419  and  _421
REMARK  181  A    between atoms: _421  and  _422
REMARK  182  A    between atoms: _421  and  _424
REMARK  183  A    between atoms: _424  and  _425
REMARK  184  A    between atoms: _428  and  _430
REMARK  185  A    between atoms: _430  and  _431
REMARK  186  A    between atoms: _430  and  _433
REMARK  187  A    between atoms: _433  and  _434
REMARK  188  A    between atoms: _436  and  _438
REMARK  189  A    between atoms: _438  and  _439
REMARK  190  A    between atoms: _438  and  _441
REMARK  191  A    between atoms: _441  and  _442
REMARK  192  A    between atoms: _444  and  _446
REMARK  193  A    between atoms: _446  and  _447
REMARK  194  A    between atoms: _450  and  _452
REMARK  195  A    between atoms: _452  and  _453
REMARK  196  A    between atoms: _452  and  _455
REMARK  197  A    between atoms: _455  and  _456
REMARK  198  A    between atoms: _459  and  _461
REMARK  199  A    between atoms: _461  and  _462
REMARK  200  A    between atoms: _461  and  _464
REMARK  201  A    between atoms: _467  and  _469
REMARK  202  A    between atoms: _469  and  _470
REMARK  203  A    between atoms: _472  and  _474
REMARK  204  A    between atoms: _474  and  _475
REMARK  205  A    between atoms: _477  and  _479
REMARK  206  A    between atoms: _479  and  _480
REMARK  207  A    between atoms: _479  and  _482
REMARK  208  A    between atoms: _482  and  _483
REMARK  209  A    between atoms: _483  and  _484
REMARK  210  A    between atoms: _489  and  _491
REMARK  211  A    between atoms: _491  and  _492
REMARK  212  A    between atoms: _491  and  _494
REMARK  213  A    between atoms: _494  and  _495
REMARK  214  A    between atoms: _498  and  _500
REMARK  215  A    between atoms: _500  and  _501
REMARK  216  A    between atoms: _500  and  _503
REMARK  217  A    between atoms: _503  and  _504
REMARK  218  A    between atoms: _504  and  _505
REMARK  219  A    between atoms: _505  and  _506
REMARK  220  A    between atoms: _515  and  _517
REMARK  221  A    between atoms: _517  and  _518
REMARK  222  A    between atoms: _517  and  _520
REMARK  223  A    between atoms: _520  and  _521
REMARK  224  A    between atoms: _521  and  _522
REMARK  225  A    between atoms: _525  and  _526
REMARK  226  A    between atoms: _531  and  _533
REMARK  227  A    between atoms: _533  and  _534
REMARK  228  A    between atoms: _533  and  _536
REMARK  229  A    between atoms: _539  and  _541
REMARK  230  A    between atoms: _541  and  _542
REMARK  231  A    between atoms: _541  and  _544
REMARK  232  A    between atoms: _544  and  _545
REMARK  233  A    between atoms: _545  and  _546
REMARK  234  A    between atoms: _552  and  _553
REMARK  235  A    between atoms: _558  and  _560
REMARK  236  A    between atoms: _560  and  _561
REMARK  237  A    between atoms: _560  and  _563
REMARK  238  A    between atoms: _563  and  _564
REMARK  239  A    between atoms: _567  and  _569
REMARK  240  A    between atoms: _569  and  _570
REMARK  241  A    between atoms: _569  and  _572
REMARK  242  A    between atoms: _572  and  _573
REMARK  243  A    between atoms: _573  and  _574
REMARK  244  A    between atoms: _577  and  _579
REMARK  245  A    between atoms: _579  and  _580
REMARK  246  A    between atoms: _579  and  _582
REMARK  247  A    between atoms: _585  and  _587
REMARK  248  A    between atoms: _587  and  _588
REMARK  249  A    between atoms: _591  and  _593
REMARK  250  A    between atoms: _593  and  _594
REMARK  251  A    between atoms: _593  and  _596
REMARK  252  A    between atoms: _596  and  _597
REMARK  253  A    between atoms: _597  and  _598
REMARK  254  A    between atoms: _601  and  _603
REMARK  255  A    between atoms: _603  and  _604
REMARK  256  A    between atoms: _606  and  _608
REMARK  257  A    between atoms: _608  and  _609
REMARK  258  A    between atoms: _608  and  _611
REMARK  259  A    between atoms: _611  and  _612
REMARK                            x       y       z     vdW  Elec       q    Type
REMARK                         _______ _______ _______ _____ _____    ______ ____
ROOT
ATOM      1  O   HOH     1       9.196  73.551  30.054  0.00  0.00    +0.000 OA
ENDROOT
TORSDOF 0
REMARK  Name = ../refined-set-2016/4jne/4jne_pocket.pdb
REMARK  259 active torsions:
REMARK  status: ('A' for Active; 'I' for Inactive)
REMARK    1  A    between atoms: _1  and  _3
REMARK    2  A    between atoms: _3  and  _4
REMARK    3  A    between atoms: _3  and  _6
REMARK    4  A    between atoms: _6  and  _7
REMARK    5  A    between atoms: _10  and  _12
REMARK    6  A    between atoms: _12  and  _13
REMARK    7  A    between atoms: _12  and  _15
REMARK    8  A    between atoms: _15  and  _16
REMARK    9  A    between atoms: _19  and  _21
REMARK   10  A    between atoms: _21  and  _22
REMARK   11  A    between atoms: _24  and  _26
REMARK   12  A    between atoms: _26  and  _27
REMARK   13  A    between atoms: _26  and  _29
REMARK   14  A    between atoms: _29  and  _30
REMARK   15  A    between atoms: _33  and  _35
REMARK   16  A    between atoms: _35  and  _36
REMARK   17  A    between atoms: _35  and  _38
REMARK   18  A    between atoms: _38  and  _39
REMARK   19  A    between atoms: _42  and  _44
REMARK   20  A    between atoms: _44  and  _45
REMARK   21  A    between atoms: _44  and  _47
REMARK   22  A    between atoms: _47  and  _48
REMARK   23  A    between atoms: _53  and  _55
REMARK   24  A    between atoms: _55  and  _56
REMARK   25  A    between atoms: _55  and  _58
REMARK   26  A    between atoms: _58  and  _59
REMARK   27  A    between atoms: _61  and  _63
REMARK   28  A    between atoms: _63  and  _64
REMARK   29  A    between atoms: _63  and  _66
REMARK   30  A    between atoms: _68  and  _70
REMARK   31  A    between atoms: _70  and  _71
REMARK   32  A    between atoms: _70  and  _73
REMARK   33  A    between atoms: _73  and  _74
REMARK   34  A    between atoms: _77  and  _79
REMARK   35  A    between atoms: _79  and  _80
REMARK   36  A    between atoms: _79  and  _82
REMARK   37  A    between atoms: _82  and  _83
REMARK   38  A    between atoms: _87  and  _88
REMARK   39  A    between atoms: _93  and  _95
REMARK   40  A    between atoms: _95  and  _96
REMARK   41  A    between atoms: _95  and  _98
REMARK   42  A    between atoms: _98  and  _99
REMARK   43  A    between atoms: _101  and  _103
REMARK   44  A    between atoms: _103  and  _104
REMARK   45  A    between atoms: _103  and  _106
REMARK   46  A    between atoms: _106  and  _107
REMARK   47  A    between atoms: _107  and  _108
REMARK   48  A    between atoms: _108  and  _109
REMARK   49  A    between atoms: _109  and  _110
REMARK   50  A    between atoms: _114  and  _116
REMARK   51  A    between atoms: _116  and  _117
REMARK   52  A    between atoms: _120  and  _122
REMARK   53  A    between atoms: _122  and  _123
REMARK   54  A    between atoms: _122  and  _125
REMARK   55  A    between atoms: _125  and  _126
REMARK   56  A    between atoms: _126  and  _127
REMARK   57  A    between atoms: _127  and  _128
REMARK   58  A    between atoms: _128  and  _129
REMARK   59  A    between atoms: _133  and  _135
REMARK   60  A    between atoms: _135  and  _136
REMARK   61  A    between atoms: _135  and  _138
REMARK   62  A    between atoms: _138  and  _139
REMARK   63  A    between atoms: _139  and  _140
REMARK   64  A    between atoms: _140  and  _141
REMARK   65  A    between atoms: _150  and  _152
REMARK   66  A    between atoms: _152  and  _153
REMARK   67  A    between atoms: _152  and  _155
REMARK   68  A    between atoms: _155  and  _156
REMARK   69  A    between atoms: _159  and  _161
REMARK   70  A    between atoms: _161  and  _162
REMARK   71  A    between atoms: _161  and  _164
REMARK   72  A    between atoms: _168  and  _169
REMARK   73  A    between atoms: _174  and  _176
REMARK   74  A    between atoms: _176  and  _177
REMARK   75  A    between atoms: _180  and  _182
REMARK   76  A    between atoms: _182  and  _183
REMARK   77  A    between atoms: _182  and  _185
REMARK   78  A    between atoms: _185  and  _186
REMARK   79  A    between atoms: _192  and  _194
REMARK   80  A    between atoms: _194  and  _195
REMARK   81  A    between atoms: _194  and  _197
REMARK   82  A    between atoms: _197  and  _198
REMARK   83  A    between atoms: _198  and  _199
REMARK   84  A    between atoms: _202  and  _204
REMARK   85  A    between atoms: _204  and  _205
REMARK   86  A    between atoms: _204  and  _207
REMARK   87  A    between atoms: _207  and  _208
REMARK   88  A    between atoms: _211  and  _213
REMARK   89  A    between atoms: _213  and  _214
REMARK   90  A    between atoms: _213  and  _216
REMARK   91  A    between atoms: _216  and  _217
REMARK   92  A    between atoms: _220  and  _222
REMARK   93  A    between atoms: _222  and  _223
REMARK   94  A    between atoms: _225  and  _227
REMARK   95  A    between atoms: _227  and  _228
REMARK   96  A    between atoms: _230  and  _232
REMARK   97  A    between atoms: _232  and  _233
REMARK   98  A    between atoms: _235  and  _237
REMARK   99  A    between atoms: _237  and  _238
REMARK  100  A    between atoms: _241  and  _243
REMARK  101  A    between atoms: _243  and  _244
REMARK  102  A    between atoms: _243  and  _246
REMARK  103  A    between atoms: _246  and  _247
REMARK  104  A    between atoms: _253  and  _255
REMARK  105  A    between atoms: _255  and  _256
REMARK  106  A    between atoms: _255  and  _258
REMARK  107  A    between atoms: _258  and  _259
REMARK  108  A    between atoms: _262  and  _264
REMARK  109  A    between atoms: _264  and  _265
REMARK  110  A    between atoms: _264  and  _267
REMARK  111  A    between atoms: _267  and  _268
REMARK  112  A    between atoms: _271  and  _273
REMARK  113  A    between atoms: _273  and  _274
REMARK  114  A    between atoms: _273  and  _276
REMARK  115  A    between atoms: _276  and  _277
REMARK  116  A    between atoms: _280  and  _282
REMARK  117  A    between atoms: _282  and  _283
REMARK  118  A    between atoms: _282  and  _285
REMARK  119  A    between atoms: _285  and  _286
REMARK  120  A    between atoms: _289  and  _291
REMARK  121  A    between atoms: _291  and  _292
REMARK  122  A    between atoms: _294  and  _296
REMARK  123  A    between atoms: _296  and  _297
REMARK  124  A    between atoms: _299  and  _301
REMARK  125  A    between atoms: _301  and  _302
REMARK  126  A    between atoms: _301  and  _304
REMARK  127  A    between atoms: _304  and  _305
REMARK  128  A    between atoms: _305  and  _306
REMARK  129  A    between atoms: _309  and  _311
REMARK  130  A    between atoms: _311  and  _312
REMARK  131  A    between atoms: _311  and  _314
REMARK  132  A    between atoms: _314  and  _315
REMARK  133  A    between atoms: _318  and  _320
REMARK  134  A    between atoms: _320  and  _321
REMARK  135  A    between atoms: _320  and  _323
REMARK  136  A    between atoms: _323  and  _324
REMARK  137  A    between atoms: _330  and  _332
REMARK  138  A    between atoms: _332  and  _333
REMARK  139  A    between atoms: _332  and  _335
REMARK  140  A    between atoms: _335  and  _336
REMARK  141  A    between atoms: _339  and  _341
REMARK  142  A    between atoms: _341  and  _342
REMARK  143  A    between atoms: _341  and  _344
REMARK  144  A    between atoms: _344  and  _345
REMARK  145  A    between atoms: _345  and  _346
REMARK  146  A    between atoms: _346  and  _347
REMARK  147  A    between atoms: _347  and  _348
REMARK  148  A    between atoms: _352  and  _354
REMARK  149  A    between atoms: _354  and  _355
REMARK  150  A    between atoms: _358  and  _360
REMARK  151  A    between atoms: _360  and  _361
REMARK  152  A    between atoms: _360  and  _363
REMARK  153  A    between atoms: _363  and  _364
REMARK  154  A    between atoms: _364  and  _365
REMARK  155  A    between atoms: _368  and  _370
REMARK  156  A    between atoms: _370  and  _371
REMARK  157  A    between atoms: _370  and  _373
REMARK  158  A    between atoms: _373  and  _374
REMARK  159  A    between atoms: _374  and  _375
REMARK  160  A    between atoms: _375  and  _376
REMARK  161  A    between atoms: _376  and  _377
REMARK  162  A    between atoms: _381  and  _383
REMARK  163  A    between atoms: _383  and  _384
REMARK  164  A    between atoms: _387  and  _389
REMARK  165  A    between atoms: _389  and  _390
REMARK  166  A    between atoms: _389  and  _392
REMARK  167  A    between atoms: _392  and  _393
REMARK  168  A    between atoms: _393  and  _394
REMARK  169  A    between atoms: _394  and  _395
REMARK  170  A    between atoms: _395  and  _396
REMARK  171  A    between atoms: _400  and  _402
REMARK  172  A    between atoms: _402  and  _403
REMARK  173  A    between atoms: _402  and  _405
REMARK  174  A    between atoms: _405  and  _406
REMARK  175  A    between atoms: _409  and  _411
REMARK  176  A    between atoms: _411  and  _412
REMARK  177  A    between atoms: _411  and  _414
REMARK  178  A    between atoms: _414  and  _415
REMARK  179  A    between atoms: _415  and  _416
REMARK  180  A    between atoms: _419  and  _421
REMARK  181  A    between atoms: _421  and  _422
REMARK  182  A    between atoms: _421  and  _424
REMARK  183  A    between atoms: _424  and  _425
REMARK  184  A    between atoms: _428  and  _430
REMARK  185  A    between atoms: _430  and  _431
REMARK  186  A    between atoms: _430  and  _433
REMARK  187  A    between atoms: _433  and  _434
REMARK  188  A    between atoms: _436  and  _438
REMARK  189  A    between atoms: _438  and  _439
REMARK  190  A    between atoms: _438  and  _441
REMARK  191  A    between atoms: _441  and  _442
REMARK  192  A    between atoms: _444  and  _446
REMARK  193  A    between atoms: _446  and  _447
REMARK  194  A    between atoms: _450  and  _452
REMARK  195  A    between atoms: _452  and  _453
REMARK  196  A    between atoms: _452  and  _455
REMARK  197  A    between atoms: _455  and  _456
REMARK  198  A    between atoms: _459  and  _461
REMARK  199  A    between atoms: _461  and  _462
REMARK  200  A    between atoms: _461  and  _464
REMARK  201  A    between atoms: _467  and  _469
REMARK  202  A    between atoms: _469  and  _470
REMARK  203  A    between atoms: _472  and  _474
REMARK  204  A    between atoms: _474  and  _475
REMARK  205  A    between atoms: _477  and  _479
REMARK  206  A    between atoms: _479  and  _480
REMARK  207  A    between atoms: _479  and  _482
REMARK  208  A    between atoms: _482  and  _483
REMARK  209  A    between atoms: _483  and  _484
REMARK  210  A    between atoms: _489  and  _491
REMARK  211  A    between atoms: _491  and  _492
REMARK  212  A    between atoms: _491  and  _494
REMARK  213  A    between atoms: _494  and  _495
REMARK  214  A    between atoms: _498  and  _500
REMARK  215  A    between atoms: _500  and  _501
REMARK  216  A    between atoms: _500  and  _503
REMARK  217  A    between atoms: _503  and  _504
REMARK  218  A    between atoms: _504  and  _505
REMARK  219  A    between atoms: _505  and  _506
REMARK  220  A    between atoms: _515  and  _517
REMARK  221  A    between atoms: _517  and  _518
REMARK  222  A    between atoms: _517  and  _520
REMARK  223  A    between atoms: _520  and  _521
REMARK  224  A    between atoms: _521  and  _522
REMARK  225  A    between atoms: _525  and  _526
REMARK  226  A    between atoms: _531  and  _533
REMARK  227  A    between atoms: _533  and  _534
REMARK  228  A    between atoms: _533  and  _536
REMARK  229  A    between atoms: _539  and  _541
REMARK  230  A    between atoms: _541  and  _542
REMARK  231  A    between atoms: _541  and  _544
REMARK  232  A    between atoms: _544  and  _545
REMARK  233  A    between atoms: _545  and  _546
REMARK  234  A    between atoms: _552  and  _553
REMARK  235  A    between atoms: _558  and  _560
REMARK  236  A    between atoms: _560  and  _561
REMARK  237  A    between atoms: _560  and  _563
REMARK  238  A    between atoms: _563  and  _564
REMARK  239  A    between atoms: _567  and  _569
REMARK  240  A    between atoms: _569  and  _570
REMARK  241  A    between atoms: _569  and  _572
REMARK  242  A    between atoms: _572  and  _573
REMARK  243  A    between atoms: _573  and  _574
REMARK  244  A    between atoms: _577  and  _579
REMARK  245  A    between atoms: _579  and  _580
REMARK  246  A    between atoms: _579  and  _582
REMARK  247  A    between atoms: _585  and  _587
REMARK  248  A    between atoms: _587  and  _588
REMARK  249  A    between atoms: _591  and  _593
REMARK  250  A    between atoms: _593  and  _594
REMARK  251  A    between atoms: _593  and  _596
REMARK  252  A    between atoms: _596  and  _597
REMARK  253  A    between atoms: _597  and  _598
REMARK  254  A    between atoms: _601  and  _603
REMARK  255  A    between atoms: _603  and  _604
REMARK  256  A    between atoms: _606  and  _608
REMARK  257  A    between atoms: _608  and  _609
REMARK  258  A    between atoms: _608  and  _611
REMARK  259  A    between atoms: _611  and  _612
REMARK                            x       y       z     vdW  Elec       q    Type
REMARK                         _______ _______ _______ _____ _____    ______ ____
ROOT
ATOM      1  O   HOH     1      19.865  82.673  30.588  0.00  0.00    +0.000 OA
ENDROOT
TORSDOF 0
REMARK  Name = ../refined-set-2016/4jne/4jne_pocket.pdb
REMARK  259 active torsions:
REMARK  status: ('A' for Active; 'I' for Inactive)
REMARK    1  A    between atoms: _1  and  _3
REMARK    2  A    between atoms: _3  and  _4
REMARK    3  A    between atoms: _3  and  _6
REMARK    4  A    between atoms: _6  and  _7
REMARK    5  A    between atoms: _10  and  _12
REMARK    6  A    between atoms: _12  and  _13
REMARK    7  A    between atoms: _12  and  _15
REMARK    8  A    between atoms: _15  and  _16
REMARK    9  A    between atoms: _19  and  _21
REMARK   10  A    between atoms: _21  and  _22
REMARK   11  A    between atoms: _24  and  _26
REMARK   12  A    between atoms: _26  and  _27
REMARK   13  A    between atoms: _26  and  _29
REMARK   14  A    between atoms: _29  and  _30
REMARK   15  A    between atoms: _33  and  _35
REMARK   16  A    between atoms: _35  and  _36
REMARK   17  A    between atoms: _35  and  _38
REMARK   18  A    between atoms: _38  and  _39
REMARK   19  A    between atoms: _42  and  _44
REMARK   20  A    between atoms: _44  and  _45
REMARK   21  A    between atoms: _44  and  _47
REMARK   22  A    between atoms: _47  and  _48
REMARK   23  A    between atoms: _53  and  _55
REMARK   24  A    between atoms: _55  and  _56
REMARK   25  A    between atoms: _55  and  _58
REMARK   26  A    between atoms: _58  and  _59
REMARK   27  A    between atoms: _61  and  _63
REMARK   28  A    between atoms: _63  and  _64
REMARK   29  A    between atoms: _63  and  _66
REMARK   30  A    between atoms: _68  and  _70
REMARK   31  A    between atoms: _70  and  _71
REMARK   32  A    between atoms: _70  and  _73
REMARK   33  A    between atoms: _73  and  _74
REMARK   34  A    between atoms: _77  and  _79
REMARK   35  A    between atoms: _79  and  _80
REMARK   36  A    between atoms: _79  and  _82
REMARK   37  A    between atoms: _82  and  _83
REMARK   38  A    between atoms: _87  and  _88
REMARK   39  A    between atoms: _93  and  _95
REMARK   40  A    between atoms: _95  and  _96
REMARK   41  A    between atoms: _95  and  _98
REMARK   42  A    between atoms: _98  and  _99
REMARK   43  A    between atoms: _101  and  _103
REMARK   44  A    between atoms: _103  and  _104
REMARK   45  A    between atoms: _103  and  _106
REMARK   46  A    between atoms: _106  and  _107
REMARK   47  A    between atoms: _107  and  _108
REMARK   48  A    between atoms: _108  and  _109
REMARK   49  A    between atoms: _109  and  _110
REMARK   50  A    between atoms: _114  and  _116
REMARK   51  A    between atoms: _116  and  _117
REMARK   52  A    between atoms: _120  and  _122
REMARK   53  A    between atoms: _122  and  _123
REMARK   54  A    between atoms: _122  and  _125
REMARK   55  A    between atoms: _125  and  _126
REMARK   56  A    between atoms: _126  and  _127
REMARK   57  A    between atoms: _127  and  _128
REMARK   58  A    between atoms: _128  and  _129
REMARK   59  A    between atoms: _133  and  _135
REMARK   60  A    between atoms: _135  and  _136
REMARK   61  A    between atoms: _135  and  _138
REMARK   62  A    between atoms: _138  and  _139
REMARK   63  A    between atoms: _139  and  _140
REMARK   64  A    between atoms: _140  and  _141
REMARK   65  A    between atoms: _150  and  _152
REMARK   66  A    between atoms: _152  and  _153
REMARK   67  A    between atoms: _152  and  _155
REMARK   68  A    between atoms: _155  and  _156
REMARK   69  A    between atoms: _159  and  _161
REMARK   70  A    between atoms: _161  and  _162
REMARK   71  A    between atoms: _161  and  _164
REMARK   72  A    between atoms: _168  and  _169
REMARK   73  A    between atoms: _174  and  _176
REMARK   74  A    between atoms: _176  and  _177
REMARK   75  A    between atoms: _180  and  _182
REMARK   76  A    between atoms: _182  and  _183
REMARK   77  A    between atoms: _182  and  _185
REMARK   78  A    between atoms: _185  and  _186
REMARK   79  A    between atoms: _192  and  _194
REMARK   80  A    between atoms: _194  and  _195
REMARK   81  A    between atoms: _194  and  _197
REMARK   82  A    between atoms: _197  and  _198
REMARK   83  A    between atoms: _198  and  _199
REMARK   84  A    between atoms: _202  and  _204
REMARK   85  A    between atoms: _204  and  _205
REMARK   86  A    between atoms: _204  and  _207
REMARK   87  A    between atoms: _207  and  _208
REMARK   88  A    between atoms: _211  and  _213
REMARK   89  A    between atoms: _213  and  _214
REMARK   90  A    between atoms: _213  and  _216
REMARK   91  A    between atoms: _216  and  _217
REMARK   92  A    between atoms: _220  and  _222
REMARK   93  A    between atoms: _222  and  _223
REMARK   94  A    between atoms: _225  and  _227
REMARK   95  A    between atoms: _227  and  _228
REMARK   96  A    between atoms: _230  and  _232
REMARK   97  A    between atoms: _232  and  _233
REMARK   98  A    between atoms: _235  and  _237
REMARK   99  A    between atoms: _237  and  _238
REMARK  100  A    between atoms: _241  and  _243
REMARK  101  A    between atoms: _243  and  _244
REMARK  102  A    between atoms: _243  and  _246
REMARK  103  A    between atoms: _246  and  _247
REMARK  104  A    between atoms: _253  and  _255
REMARK  105  A    between atoms: _255  and  _256
REMARK  106  A    between atoms: _255  and  _258
REMARK  107  A    between atoms: _258  and  _259
REMARK  108  A    between atoms: _262  and  _264
REMARK  109  A    between atoms: _264  and  _265
REMARK  110  A    between atoms: _264  and  _267
REMARK  111  A    between atoms: _267  and  _268
REMARK  112  A    between atoms: _271  and  _273
REMARK  113  A    between atoms: _273  and  _274
REMARK  114  A    between atoms: _273  and  _276
REMARK  115  A    between atoms: _276  and  _277
REMARK  116  A    between atoms: _280  and  _282
REMARK  117  A    between atoms: _282  and  _283
REMARK  118  A    between atoms: _282  and  _285
REMARK  119  A    between atoms: _285  and  _286
REMARK  120  A    between atoms: _289  and  _291
REMARK  121  A    between atoms: _291  and  _292
REMARK  122  A    between atoms: _294  and  _296
REMARK  123  A    between atoms: _296  and  _297
REMARK  124  A    between atoms: _299  and  _301
REMARK  125  A    between atoms: _301  and  _302
REMARK  126  A    between atoms: _301  and  _304
REMARK  127  A    between atoms: _304  and  _305
REMARK  128  A    between atoms: _305  and  _306
REMARK  129  A    between atoms: _309  and  _311
REMARK  130  A    between atoms: _311  and  _312
REMARK  131  A    between atoms: _311  and  _314
REMARK  132  A    between atoms: _314  and  _315
REMARK  133  A    between atoms: _318  and  _320
REMARK  134  A    between atoms: _320  and  _321
REMARK  135  A    between atoms: _320  and  _323
REMARK  136  A    between atoms: _323  and  _324
REMARK  137  A    between atoms: _330  and  _332
REMARK  138  A    between atoms: _332  and  _333
REMARK  139  A    between atoms: _332  and  _335
REMARK  140  A    between atoms: _335  and  _336
REMARK  141  A    between atoms: _339  and  _341
REMARK  142  A    between atoms: _341  and  _342
REMARK  143  A    between atoms: _341  and  _344
REMARK  144  A    between atoms: _344  and  _345
REMARK  145  A    between atoms: _345  and  _346
REMARK  146  A    between atoms: _346  and  _347
REMARK  147  A    between atoms: _347  and  _348
REMARK  148  A    between atoms: _352  and  _354
REMARK  149  A    between atoms: _354  and  _355
REMARK  150  A    between atoms: _358  and  _360
REMARK  151  A    between atoms: _360  and  _361
REMARK  152  A    between atoms: _360  and  _363
REMARK  153  A    between atoms: _363  and  _364
REMARK  154  A    between atoms: _364  and  _365
REMARK  155  A    between atoms: _368  and  _370
REMARK  156  A    between atoms: _370  and  _371
REMARK  157  A    between atoms: _370  and  _373
REMARK  158  A    between atoms: _373  and  _374
REMARK  159  A    between atoms: _374  and  _375
REMARK  160  A    between atoms: _375  and  _376
REMARK  161  A    between atoms: _376  and  _377
REMARK  162  A    between atoms: _381  and  _383
REMARK  163  A    between atoms: _383  and  _384
REMARK  164  A    between atoms: _387  and  _389
REMARK  165  A    between atoms: _389  and  _390
REMARK  166  A    between atoms: _389  and  _392
REMARK  167  A    between atoms: _392  and  _393
REMARK  168  A    between atoms: _393  and  _394
REMARK  169  A    between atoms: _394  and  _395
REMARK  170  A    between atoms: _395  and  _396
REMARK  171  A    between atoms: _400  and  _402
REMARK  172  A    between atoms: _402  and  _403
REMARK  173  A    between atoms: _402  and  _405
REMARK  174  A    between atoms: _405  and  _406
REMARK  175  A    between atoms: _409  and  _411
REMARK  176  A    between atoms: _411  and  _412
REMARK  177  A    between atoms: _411  and  _414
REMARK  178  A    between atoms: _414  and  _415
REMARK  179  A    between atoms: _415  and  _416
REMARK  180  A    between atoms: _419  and  _421
REMARK  181  A    between atoms: _421  and  _422
REMARK  182  A    between atoms: _421  and  _424
REMARK  183  A    between atoms: _424  and  _425
REMARK  184  A    between atoms: _428  and  _430
REMARK  185  A    between atoms: _430  and  _431
REMARK  186  A    between atoms: _430  and  _433
REMARK  187  A    between atoms: _433  and  _434
REMARK  188  A    between atoms: _436  and  _438
REMARK  189  A    between atoms: _438  and  _439
REMARK  190  A    between atoms: _438  and  _441
REMARK  191  A    between atoms: _441  and  _442
REMARK  192  A    between atoms: _444  and  _446
REMARK  193  A    between atoms: _446  and  _447
REMARK  194  A    between atoms: _450  and  _452
REMARK  195  A    between atoms: _452  and  _453
REMARK  196  A    between atoms: _452  and  _455
REMARK  197  A    between atoms: _455  and  _456
REMARK  198  A    between atoms: _459  and  _461
REMARK  199  A    between atoms: _461  and  _462
REMARK  200  A    between atoms: _461  and  _464
REMARK  201  A    between atoms: _467  and  _469
REMARK  202  A    between atoms: _469  and  _470
REMARK  203  A    between atoms: _472  and  _474
REMARK  204  A    between atoms: _474  and  _475
REMARK  205  A    between atoms: _477  and  _479
REMARK  206  A    between atoms: _479  and  _480
REMARK  207  A    between atoms: _479  and  _482
REMARK  208  A    between atoms: _482  and  _483
REMARK  209  A    between atoms: _483  and  _484
REMARK  210  A    between atoms: _489  and  _491
REMARK  211  A    between atoms: _491  and  _492
REMARK  212  A    between atoms: _491  and  _494
REMARK  213  A    between atoms: _494  and  _495
REMARK  214  A    between atoms: _498  and  _500
REMARK  215  A    between atoms: _500  and  _501
REMARK  216  A    between atoms: _500  and  _503
REMARK  217  A    between atoms: _503  and  _504
REMARK  218  A    between atoms: _504  and  _505
REMARK  219  A    between atoms: _505  and  _506
REMARK  220  A    between atoms: _515  and  _517
REMARK  221  A    between atoms: _517  and  _518
REMARK  222  A    between atoms: _517  and  _520
REMARK  223  A    between atoms: _520  and  _521
REMARK  224  A    between atoms: _521  and  _522
REMARK  225  A    between atoms: _525  and  _526
REMARK  226  A    between atoms: _531  and  _533
REMARK  227  A    between atoms: _533  and  _534
REMARK  228  A    between atoms: _533  and  _536
REMARK  229  A    between atoms: _539  and  _541
REMARK  230  A    between atoms: _541  and  _542
REMARK  231  A    between atoms: _541  and  _544
REMARK  232  A    between atoms: _544  and  _545
REMARK  233  A    between atoms: _545  and  _546
REMARK  234  A    between atoms: _552  and  _553
REMARK  235  A    between atoms: _558  and  _560
REMARK  236  A    between atoms: _560  and  _561
REMARK  237  A    between atoms: _560  and  _563
REMARK  238  A    between atoms: _563  and  _564
REMARK  239  A    between atoms: _567  and  _569
REMARK  240  A    between atoms: _569  and  _570
REMARK  241  A    between atoms: _569  and  _572
REMARK  242  A    between atoms: _572  and  _573
REMARK  243  A    between atoms: _573  and  _574
REMARK  244  A    between atoms: _577  and  _579
REMARK  245  A    between atoms: _579  and  _580
REMARK  246  A    between atoms: _579  and  _582
REMARK  247  A    between atoms: _585  and  _587
REMARK  248  A    between atoms: _587  and  _588
REMARK  249  A    between atoms: _591  and  _593
REMARK  250  A    between atoms: _593  and  _594
REMARK  251  A    between atoms: _593  and  _596
REMARK  252  A    between atoms: _596  and  _597
REMARK  253  A    between atoms: _597  and  _598
REMARK  254  A    between atoms: _601  and  _603
REMARK  255  A    between atoms: _603  and  _604
REMARK  256  A    between atoms: _606  and  _608
REMARK  257  A    between atoms: _608  and  _609
REMARK  258  A    between atoms: _608  and  _611
REMARK  259  A    between atoms: _611  and  _612
REMARK                            x       y       z     vdW  Elec       q    Type
REMARK                         _______ _______ _______ _____ _____    ______ ____
ROOT
ATOM      1  O   HOH     1      23.407  72.593  30.356  0.00  0.00    +0.000 OA
ENDROOT
TORSDOF 0
REMARK  Name = ../refined-set-2016/4jne/4jne_pocket.pdb
REMARK  259 active torsions:
REMARK  status: ('A' for Active; 'I' for Inactive)
REMARK    1  A    between atoms: _1  and  _3
REMARK    2  A    between atoms: _3  and  _4
REMARK    3  A    between atoms: _3  and  _6
REMARK    4  A    between atoms: _6  and  _7
REMARK    5  A    between atoms: _10  and  _12
REMARK    6  A    between atoms: _12  and  _13
REMARK    7  A    between atoms: _12  and  _15
REMARK    8  A    between atoms: _15  and  _16
REMARK    9  A    between atoms: _19  and  _21
REMARK   10  A    between atoms: _21  and  _22
REMARK   11  A    between atoms: _24  and  _26
REMARK   12  A    between atoms: _26  and  _27
REMARK   13  A    between atoms: _26  and  _29
REMARK   14  A    between atoms: _29  and  _30
REMARK   15  A    between atoms: _33  and  _35
REMARK   16  A    between atoms: _35  and  _36
REMARK   17  A    between atoms: _35  and  _38
REMARK   18  A    between atoms: _38  and  _39
REMARK   19  A    between atoms: _42  and  _44
REMARK   20  A    between atoms: _44  and  _45
REMARK   21  A    between atoms: _44  and  _47
REMARK   22  A    between atoms: _47  and  _48
REMARK   23  A    between atoms: _53  and  _55
REMARK   24  A    between atoms: _55  and  _56
REMARK   25  A    between atoms: _55  and  _58
REMARK   26  A    between atoms: _58  and  _59
REMARK   27  A    between atoms: _61  and  _63
REMARK   28  A    between atoms: _63  and  _64
REMARK   29  A    between atoms: _63  and  _66
REMARK   30  A    between atoms: _68  and  _70
REMARK   31  A    between atoms: _70  and  _71
REMARK   32  A    between atoms: _70  and  _73
REMARK   33  A    between atoms: _73  and  _74
REMARK   34  A    between atoms: _77  and  _79
REMARK   35  A    between atoms: _79  and  _80
REMARK   36  A    between atoms: _79  and  _82
REMARK   37  A    between atoms: _82  and  _83
REMARK   38  A    between atoms: _87  and  _88
REMARK   39  A    between atoms: _93  and  _95
REMARK   40  A    between atoms: _95  and  _96
REMARK   41  A    between atoms: _95  and  _98
REMARK   42  A    between atoms: _98  and  _99
REMARK   43  A    between atoms: _101  and  _103
REMARK   44  A    between atoms: _103  and  _104
REMARK   45  A    between atoms: _103  and  _106
REMARK   46  A    between atoms: _106  and  _107
REMARK   47  A    between atoms: _107  and  _108
REMARK   48  A    between atoms: _108  and  _109
REMARK   49  A    between atoms: _109  and  _110
REMARK   50  A    between atoms: _114  and  _116
REMARK   51  A    between atoms: _116  and  _117
REMARK   52  A    between atoms: _120  and  _122
REMARK   53  A    between atoms: _122  and  _123
REMARK   54  A    between atoms: _122  and  _125
REMARK   55  A    between atoms: _125  and  _126
REMARK   56  A    between atoms: _126  and  _127
REMARK   57  A    between atoms: _127  and  _128
REMARK   58  A    between atoms: _128  and  _129
REMARK   59  A    between atoms: _133  and  _135
REMARK   60  A    between atoms: _135  and  _136
REMARK   61  A    between atoms: _135  and  _138
REMARK   62  A    between atoms: _138  and  _139
REMARK   63  A    between atoms: _139  and  _140
REMARK   64  A    between atoms: _140  and  _141
REMARK   65  A    between atoms: _150  and  _152
REMARK   66  A    between atoms: _152  and  _153
REMARK   67  A    between atoms: _152  and  _155
REMARK   68  A    between atoms: _155  and  _156
REMARK   69  A    between atoms: _159  and  _161
REMARK   70  A    between atoms: _161  and  _162
REMARK   71  A    between atoms: _161  and  _164
REMARK   72  A    between atoms: _168  and  _169
REMARK   73  A    between atoms: _174  and  _176
REMARK   74  A    between atoms: _176  and  _177
REMARK   75  A    between atoms: _180  and  _182
REMARK   76  A    between atoms: _182  and  _183
REMARK   77  A    between atoms: _182  and  _185
REMARK   78  A    between atoms: _185  and  _186
REMARK   79  A    between atoms: _192  and  _194
REMARK   80  A    between atoms: _194  and  _195
REMARK   81  A    between atoms: _194  and  _197
REMARK   82  A    between atoms: _197  and  _198
REMARK   83  A    between atoms: _198  and  _199
REMARK   84  A    between atoms: _202  and  _204
REMARK   85  A    between atoms: _204  and  _205
REMARK   86  A    between atoms: _204  and  _207
REMARK   87  A    between atoms: _207  and  _208
REMARK   88  A    between atoms: _211  and  _213
REMARK   89  A    between atoms: _213  and  _214
REMARK   90  A    between atoms: _213  and  _216
REMARK   91  A    between atoms: _216  and  _217
REMARK   92  A    between atoms: _220  and  _222
REMARK   93  A    between atoms: _222  and  _223
REMARK   94  A    between atoms: _225  and  _227
REMARK   95  A    between atoms: _227  and  _228
REMARK   96  A    between atoms: _230  and  _232
REMARK   97  A    between atoms: _232  and  _233
REMARK   98  A    between atoms: _235  and  _237
REMARK   99  A    between atoms: _237  and  _238
REMARK  100  A    between atoms: _241  and  _243
REMARK  101  A    between atoms: _243  and  _244
REMARK  102  A    between atoms: _243  and  _246
REMARK  103  A    between atoms: _246  and  _247
REMARK  104  A    between atoms: _253  and  _255
REMARK  105  A    between atoms: _255  and  _256
REMARK  106  A    between atoms: _255  and  _258
REMARK  107  A    between atoms: _258  and  _259
REMARK  108  A    between atoms: _262  and  _264
REMARK  109  A    between atoms: _264  and  _265
REMARK  110  A    between atoms: _264  and  _267
REMARK  111  A    between atoms: _267  and  _268
REMARK  112  A    between atoms: _271  and  _273
REMARK  113  A    between atoms: _273  and  _274
REMARK  114  A    between atoms: _273  and  _276
REMARK  115  A    between atoms: _276  and  _277
REMARK  116  A    between atoms: _280  and  _282
REMARK  117  A    between atoms: _282  and  _283
REMARK  118  A    between atoms: _282  and  _285
REMARK  119  A    between atoms: _285  and  _286
REMARK  120  A    between atoms: _289  and  _291
REMARK  121  A    between atoms: _291  and  _292
REMARK  122  A    between atoms: _294  and  _296
REMARK  123  A    between atoms: _296  and  _297
REMARK  124  A    between atoms: _299  and  _301
REMARK  125  A    between atoms: _301  and  _302
REMARK  126  A    between atoms: _301  and  _304
REMARK  127  A    between atoms: _304  and  _305
REMARK  128  A    between atoms: _305  and  _306
REMARK  129  A    between atoms: _309  and  _311
REMARK  130  A    between atoms: _311  and  _312
REMARK  131  A    between atoms: _311  and  _314
REMARK  132  A    between atoms: _314  and  _315
REMARK  133  A    between atoms: _318  and  _320
REMARK  134  A    between atoms: _320  and  _321
REMARK  135  A    between atoms: _320  and  _323
REMARK  136  A    between atoms: _323  and  _324
REMARK  137  A    between atoms: _330  and  _332
REMARK  138  A    between atoms: _332  and  _333
REMARK  139  A    between atoms: _332  and  _335
REMARK  140  A    between atoms: _335  and  _336
REMARK  141  A    between atoms: _339  and  _341
REMARK  142  A    between atoms: _341  and  _342
REMARK  143  A    between atoms: _341  and  _344
REMARK  144  A    between atoms: _344  and  _345
REMARK  145  A    between atoms: _345  and  _346
REMARK  146  A    between atoms: _346  and  _347
REMARK  147  A    between atoms: _347  and  _348
REMARK  148  A    between atoms: _352  and  _354
REMARK  149  A    between atoms: _354  and  _355
REMARK  150  A    between atoms: _358  and  _360
REMARK  151  A    between atoms: _360  and  _361
REMARK  152  A    between atoms: _360  and  _363
REMARK  153  A    between atoms: _363  and  _364
REMARK  154  A    between atoms: _364  and  _365
REMARK  155  A    between atoms: _368  and  _370
REMARK  156  A    between atoms: _370  and  _371
REMARK  157  A    between atoms: _370  and  _373
REMARK  158  A    between atoms: _373  and  _374
REMARK  159  A    between atoms: _374  and  _375
REMARK  160  A    between atoms: _375  and  _376
REMARK  161  A    between atoms: _376  and  _377
REMARK  162  A    between atoms: _381  and  _383
REMARK  163  A    between atoms: _383  and  _384
REMARK  164  A    between atoms: _387  and  _389
REMARK  165  A    between atoms: _389  and  _390
REMARK  166  A    between atoms: _389  and  _392
REMARK  167  A    between atoms: _392  and  _393
REMARK  168  A    between atoms: _393  and  _394
REMARK  169  A    between atoms: _394  and  _395
REMARK  170  A    between atoms: _395  and  _396
REMARK  171  A    between atoms: _400  and  _402
REMARK  172  A    between atoms: _402  and  _403
REMARK  173  A    between atoms: _402  and  _405
REMARK  174  A    between atoms: _405  and  _406
REMARK  175  A    between atoms: _409  and  _411
REMARK  176  A    between atoms: _411  and  _412
REMARK  177  A    between atoms: _411  and  _414
REMARK  178  A    between atoms: _414  and  _415
REMARK  179  A    between atoms: _415  and  _416
REMARK  180  A    between atoms: _419  and  _421
REMARK  181  A    between atoms: _421  and  _422
REMARK  182  A    between atoms: _421  and  _424
REMARK  183  A    between atoms: _424  and  _425
REMARK  184  A    between atoms: _428  and  _430
REMARK  185  A    between atoms: _430  and  _431
REMARK  186  A    between atoms: _430  and  _433
REMARK  187  A    between atoms: _433  and  _434
REMARK  188  A    between atoms: _436  and  _438
REMARK  189  A    between atoms: _438  and  _439
REMARK  190  A    between atoms: _438  and  _441
REMARK  191  A    between atoms: _441  and  _442
REMARK  192  A    between atoms: _444  and  _446
REMARK  193  A    between atoms: _446  and  _447
REMARK  194  A    between atoms: _450  and  _452
REMARK  195  A    between atoms: _452  and  _453
REMARK  196  A    between atoms: _452  and  _455
REMARK  197  A    between atoms: _455  and  _456
REMARK  198  A    between atoms: _459  and  _461
REMARK  199  A    between atoms: _461  and  _462
REMARK  200  A    between atoms: _461  and  _464
REMARK  201  A    between atoms: _467  and  _469
REMARK  202  A    between atoms: _469  and  _470
REMARK  203  A    between atoms: _472  and  _474
REMARK  204  A    between atoms: _474  and  _475
REMARK  205  A    between atoms: _477  and  _479
REMARK  206  A    between atoms: _479  and  _480
REMARK  207  A    between atoms: _479  and  _482
REMARK  208  A    between atoms: _482  and  _483
REMARK  209  A    between atoms: _483  and  _484
REMARK  210  A    between atoms: _489  and  _491
REMARK  211  A    between atoms: _491  and  _492
REMARK  212  A    between atoms: _491  and  _494
REMARK  213  A    between atoms: _494  and  _495
REMARK  214  A    between atoms: _498  and  _500
REMARK  215  A    between atoms: _500  and  _501
REMARK  216  A    between atoms: _500  and  _503
REMARK  217  A    between atoms: _503  and  _504
REMARK  218  A    between atoms: _504  and  _505
REMARK  219  A    between atoms: _505  and  _506
REMARK  220  A    between atoms: _515  and  _517
REMARK  221  A    between atoms: _517  and  _518
REMARK  222  A    between atoms: _517  and  _520
REMARK  223  A    between atoms: _520  and  _521
REMARK  224  A    between atoms: _521  and  _522
REMARK  225  A    between atoms: _525  and  _526
REMARK  226  A    between atoms: _531  and  _533
REMARK  227  A    between atoms: _533  and  _534
REMARK  228  A    between atoms: _533  and  _536
REMARK  229  A    between atoms: _539  and  _541
REMARK  230  A    between atoms: _541  and  _542
REMARK  231  A    between atoms: _541  and  _544
REMARK  232  A    between atoms: _544  and  _545
REMARK  233  A    between atoms: _545  and  _546
REMARK  234  A    between atoms: _552  and  _553
REMARK  235  A    between atoms: _558  and  _560
REMARK  236  A    between atoms: _560  and  _561
REMARK  237  A    between atoms: _560  and  _563
REMARK  238  A    between atoms: _563  and  _564
REMARK  239  A    between atoms: _567  and  _569
REMARK  240  A    between atoms: _569  and  _570
REMARK  241  A    between atoms: _569  and  _572
REMARK  242  A    between atoms: _572  and  _573
REMARK  243  A    between atoms: _573  and  _574
REMARK  244  A    between atoms: _577  and  _579
REMARK  245  A    between atoms: _579  and  _580
REMARK  246  A    between atoms: _579  and  _582
REMARK  247  A    between atoms: _585  and  _587
REMARK  248  A    between atoms: _587  and  _588
REMARK  249  A    between atoms: _591  and  _593
REMARK  250  A    between atoms: _593  and  _594
REMARK  251  A    between atoms: _593  and  _596
REMARK  252  A    between atoms: _596  and  _597
REMARK  253  A    between atoms: _597  and  _598
REMARK  254  A    between atoms: _601  and  _603
REMARK  255  A    between atoms: _603  and  _604
REMARK  256  A    between atoms: _606  and  _608
REMARK  257  A    between atoms: _608  and  _609
REMARK  258  A    between atoms: _608  and  _611
REMARK  259  A    between atoms: _611  and  _612
REMARK                            x       y       z     vdW  Elec       q    Type
REMARK                         _______ _______ _______ _____ _____    ______ ____
ROOT
ATOM      1  O   HOH     1      26.380  75.382  30.773  0.00  0.00    +0.000 OA
ENDROOT
TORSDOF 0
REMARK  Name = ../refined-set-2016/4jne/4jne_pocket.pdb
REMARK  259 active torsions:
REMARK  status: ('A' for Active; 'I' for Inactive)
REMARK    1  A    between atoms: _1  and  _3
REMARK    2  A    between atoms: _3  and  _4
REMARK    3  A    between atoms: _3  and  _6
REMARK    4  A    between atoms: _6  and  _7
REMARK    5  A    between atoms: _10  and  _12
REMARK    6  A    between atoms: _12  and  _13
REMARK    7  A    between atoms: _12  and  _15
REMARK    8  A    between atoms: _15  and  _16
REMARK    9  A    between atoms: _19  and  _21
REMARK   10  A    between atoms: _21  and  _22
REMARK   11  A    between atoms: _24  and  _26
REMARK   12  A    between atoms: _26  and  _27
REMARK   13  A    between atoms: _26  and  _29
REMARK   14  A    between atoms: _29  and  _30
REMARK   15  A    between atoms: _33  and  _35
REMARK   16  A    between atoms: _35  and  _36
REMARK   17  A    between atoms: _35  and  _38
REMARK   18  A    between atoms: _38  and  _39
REMARK   19  A    between atoms: _42  and  _44
REMARK   20  A    between atoms: _44  and  _45
REMARK   21  A    between atoms: _44  and  _47
REMARK   22  A    between atoms: _47  and  _48
REMARK   23  A    between atoms: _53  and  _55
REMARK   24  A    between atoms: _55  and  _56
REMARK   25  A    between atoms: _55  and  _58
REMARK   26  A    between atoms: _58  and  _59
REMARK   27  A    between atoms: _61  and  _63
REMARK   28  A    between atoms: _63  and  _64
REMARK   29  A    between atoms: _63  and  _66
REMARK   30  A    between atoms: _68  and  _70
REMARK   31  A    between atoms: _70  and  _71
REMARK   32  A    between atoms: _70  and  _73
REMARK   33  A    between atoms: _73  and  _74
REMARK   34  A    between atoms: _77  and  _79
REMARK   35  A    between atoms: _79  and  _80
REMARK   36  A    between atoms: _79  and  _82
REMARK   37  A    between atoms: _82  and  _83
REMARK   38  A    between atoms: _87  and  _88
REMARK   39  A    between atoms: _93  and  _95
REMARK   40  A    between atoms: _95  and  _96
REMARK   41  A    between atoms: _95  and  _98
REMARK   42  A    between atoms: _98  and  _99
REMARK   43  A    between atoms: _101  and  _103
REMARK   44  A    between atoms: _103  and  _104
REMARK   45  A    between atoms: _103  and  _106
REMARK   46  A    between atoms: _106  and  _107
REMARK   47  A    between atoms: _107  and  _108
REMARK   48  A    between atoms: _108  and  _109
REMARK   49  A    between atoms: _109  and  _110
REMARK   50  A    between atoms: _114  and  _116
REMARK   51  A    between atoms: _116  and  _117
REMARK   52  A    between atoms: _120  and  _122
REMARK   53  A    between atoms: _122  and  _123
REMARK   54  A    between atoms: _122  and  _125
REMARK   55  A    between atoms: _125  and  _126
REMARK   56  A    between atoms: _126  and  _127
REMARK   57  A    between atoms: _127  and  _128
REMARK   58  A    between atoms: _128  and  _129
REMARK   59  A    between atoms: _133  and  _135
REMARK   60  A    between atoms: _135  and  _136
REMARK   61  A    between atoms: _135  and  _138
REMARK   62  A    between atoms: _138  and  _139
REMARK   63  A    between atoms: _139  and  _140
REMARK   64  A    between atoms: _140  and  _141
REMARK   65  A    between atoms: _150  and  _152
REMARK   66  A    between atoms: _152  and  _153
REMARK   67  A    between atoms: _152  and  _155
REMARK   68  A    between atoms: _155  and  _156
REMARK   69  A    between atoms: _159  and  _161
REMARK   70  A    between atoms: _161  and  _162
REMARK   71  A    between atoms: _161  and  _164
REMARK   72  A    between atoms: _168  and  _169
REMARK   73  A    between atoms: _174  and  _176
REMARK   74  A    between atoms: _176  and  _177
REMARK   75  A    between atoms: _180  and  _182
REMARK   76  A    between atoms: _182  and  _183
REMARK   77  A    between atoms: _182  and  _185
REMARK   78  A    between atoms: _185  and  _186
REMARK   79  A    between atoms: _192  and  _194
REMARK   80  A    between atoms: _194  and  _195
REMARK   81  A    between atoms: _194  and  _197
REMARK   82  A    between atoms: _197  and  _198
REMARK   83  A    between atoms: _198  and  _199
REMARK   84  A    between atoms: _202  and  _204
REMARK   85  A    between atoms: _204  and  _205
REMARK   86  A    between atoms: _204  and  _207
REMARK   87  A    between atoms: _207  and  _208
REMARK   88  A    between atoms: _211  and  _213
REMARK   89  A    between atoms: _213  and  _214
REMARK   90  A    between atoms: _213  and  _216
REMARK   91  A    between atoms: _216  and  _217
REMARK   92  A    between atoms: _220  and  _222
REMARK   93  A    between atoms: _222  and  _223
REMARK   94  A    between atoms: _225  and  _227
REMARK   95  A    between atoms: _227  and  _228
REMARK   96  A    between atoms: _230  and  _232
REMARK   97  A    between atoms: _232  and  _233
REMARK   98  A    between atoms: _235  and  _237
REMARK   99  A    between atoms: _237  and  _238
REMARK  100  A    between atoms: _241  and  _243
REMARK  101  A    between atoms: _243  and  _244
REMARK  102  A    between atoms: _243  and  _246
REMARK  103  A    between atoms: _246  and  _247
REMARK  104  A    between atoms: _253  and  _255
REMARK  105  A    between atoms: _255  and  _256
REMARK  106  A    between atoms: _255  and  _258
REMARK  107  A    between atoms: _258  and  _259
REMARK  108  A    between atoms: _262  and  _264
REMARK  109  A    between atoms: _264  and  _265
REMARK  110  A    between atoms: _264  and  _267
REMARK  111  A    between atoms: _267  and  _268
REMARK  112  A    between atoms: _271  and  _273
REMARK  113  A    between atoms: _273  and  _274
REMARK  114  A    between atoms: _273  and  _276
REMARK  115  A    between atoms: _276  and  _277
REMARK  116  A    between atoms: _280  and  _282
REMARK  117  A    between atoms: _282  and  _283
REMARK  118  A    between atoms: _282  and  _285
REMARK  119  A    between atoms: _285  and  _286
REMARK  120  A    between atoms: _289  and  _291
REMARK  121  A    between atoms: _291  and  _292
REMARK  122  A    between atoms: _294  and  _296
REMARK  123  A    between atoms: _296  and  _297
REMARK  124  A    between atoms: _299  and  _301
REMARK  125  A    between atoms: _301  and  _302
REMARK  126  A    between atoms: _301  and  _304
REMARK  127  A    between atoms: _304  and  _305
REMARK  128  A    between atoms: _305  and  _306
REMARK  129  A    between atoms: _309  and  _311
REMARK  130  A    between atoms: _311  and  _312
REMARK  131  A    between atoms: _311  and  _314
REMARK  132  A    between atoms: _314  and  _315
REMARK  133  A    between atoms: _318  and  _320
REMARK  134  A    between atoms: _320  and  _321
REMARK  135  A    between atoms: _320  and  _323
REMARK  136  A    between atoms: _323  and  _324
REMARK  137  A    between atoms: _330  and  _332
REMARK  138  A    between atoms: _332  and  _333
REMARK  139  A    between atoms: _332  and  _335
REMARK  140  A    between atoms: _335  and  _336
REMARK  141  A    between atoms: _339  and  _341
REMARK  142  A    between atoms: _341  and  _342
REMARK  143  A    between atoms: _341  and  _344
REMARK  144  A    between atoms: _344  and  _345
REMARK  145  A    between atoms: _345  and  _346
REMARK  146  A    between atoms: _346  and  _347
REMARK  147  A    between atoms: _347  and  _348
REMARK  148  A    between atoms: _352  and  _354
REMARK  149  A    between atoms: _354  and  _355
REMARK  150  A    between atoms: _358  and  _360
REMARK  151  A    between atoms: _360  and  _361
REMARK  152  A    between atoms: _360  and  _363
REMARK  153  A    between atoms: _363  and  _364
REMARK  154  A    between atoms: _364  and  _365
REMARK  155  A    between atoms: _368  and  _370
REMARK  156  A    between atoms: _370  and  _371
REMARK  157  A    between atoms: _370  and  _373
REMARK  158  A    between atoms: _373  and  _374
REMARK  159  A    between atoms: _374  and  _375
REMARK  160  A    between atoms: _375  and  _376
REMARK  161  A    between atoms: _376  and  _377
REMARK  162  A    between atoms: _381  and  _383
REMARK  163  A    between atoms: _383  and  _384
REMARK  164  A    between atoms: _387  and  _389
REMARK  165  A    between atoms: _389  and  _390
REMARK  166  A    between atoms: _389  and  _392
REMARK  167  A    between atoms: _392  and  _393
REMARK  168  A    between atoms: _393  and  _394
REMARK  169  A    between atoms: _394  and  _395
REMARK  170  A    between atoms: _395  and  _396
REMARK  171  A    between atoms: _400  and  _402
REMARK  172  A    between atoms: _402  and  _403
REMARK  173  A    between atoms: _402  and  _405
REMARK  174  A    between atoms: _405  and  _406
REMARK  175  A    between atoms: _409  and  _411
REMARK  176  A    between atoms: _411  and  _412
REMARK  177  A    between atoms: _411  and  _414
REMARK  178  A    between atoms: _414  and  _415
REMARK  179  A    between atoms: _415  and  _416
REMARK  180  A    between atoms: _419  and  _421
REMARK  181  A    between atoms: _421  and  _422
REMARK  182  A    between atoms: _421  and  _424
REMARK  183  A    between atoms: _424  and  _425
REMARK  184  A    between atoms: _428  and  _430
REMARK  185  A    between atoms: _430  and  _431
REMARK  186  A    between atoms: _430  and  _433
REMARK  187  A    between atoms: _433  and  _434
REMARK  188  A    between atoms: _436  and  _438
REMARK  189  A    between atoms: _438  and  _439
REMARK  190  A    between atoms: _438  and  _441
REMARK  191  A    between atoms: _441  and  _442
REMARK  192  A    between atoms: _444  and  _446
REMARK  193  A    between atoms: _446  and  _447
REMARK  194  A    between atoms: _450  and  _452
REMARK  195  A    between atoms: _452  and  _453
REMARK  196  A    between atoms: _452  and  _455
REMARK  197  A    between atoms: _455  and  _456
REMARK  198  A    between atoms: _459  and  _461
REMARK  199  A    between atoms: _461  and  _462
REMARK  200  A    between atoms: _461  and  _464
REMARK  201  A    between atoms: _467  and  _469
REMARK  202  A    between atoms: _469  and  _470
REMARK  203  A    between atoms: _472  and  _474
REMARK  204  A    between atoms: _474  and  _475
REMARK  205  A    between atoms: _477  and  _479
REMARK  206  A    between atoms: _479  and  _480
REMARK  207  A    between atoms: _479  and  _482
REMARK  208  A    between atoms: _482  and  _483
REMARK  209  A    between atoms: _483  and  _484
REMARK  210  A    between atoms: _489  and  _491
REMARK  211  A    between atoms: _491  and  _492
REMARK  212  A    between atoms: _491  and  _494
REMARK  213  A    between atoms: _494  and  _495
REMARK  214  A    between atoms: _498  and  _500
REMARK  215  A    between atoms: _500  and  _501
REMARK  216  A    between atoms: _500  and  _503
REMARK  217  A    between atoms: _503  and  _504
REMARK  218  A    between atoms: _504  and  _505
REMARK  219  A    between atoms: _505  and  _506
REMARK  220  A    between atoms: _515  and  _517
REMARK  221  A    between atoms: _517  and  _518
REMARK  222  A    between atoms: _517  and  _520
REMARK  223  A    between atoms: _520  and  _521
REMARK  224  A    between atoms: _521  and  _522
REMARK  225  A    between atoms: _525  and  _526
REMARK  226  A    between atoms: _531  and  _533
REMARK  227  A    between atoms: _533  and  _534
REMARK  228  A    between atoms: _533  and  _536
REMARK  229  A    between atoms: _539  and  _541
REMARK  230  A    between atoms: _541  and  _542
REMARK  231  A    between atoms: _541  and  _544
REMARK  232  A    between atoms: _544  and  _545
REMARK  233  A    between atoms: _545  and  _546
REMARK  234  A    between atoms: _552  and  _553
REMARK  235  A    between atoms: _558  and  _560
REMARK  236  A    between atoms: _560  and  _561
REMARK  237  A    between atoms: _560  and  _563
REMARK  238  A    between atoms: _563  and  _564
REMARK  239  A    between atoms: _567  and  _569
REMARK  240  A    between atoms: _569  and  _570
REMARK  241  A    between atoms: _569  and  _572
REMARK  242  A    between atoms: _572  and  _573
REMARK  243  A    between atoms: _573  and  _574
REMARK  244  A    between atoms: _577  and  _579
REMARK  245  A    between atoms: _579  and  _580
REMARK  246  A    between atoms: _579  and  _582
REMARK  247  A    between atoms: _585  and  _587
REMARK  248  A    between atoms: _587  and  _588
REMARK  249  A    between atoms: _591  and  _593
REMARK  250  A    between atoms: _593  and  _594
REMARK  251  A    between atoms: _593  and  _596
REMARK  252  A    between atoms: _596  and  _597
REMARK  253  A    between atoms: _597  and  _598
REMARK  254  A    between atoms: _601  and  _603
REMARK  255  A    between atoms: _603  and  _604
REMARK  256  A    between atoms: _606  and  _608
REMARK  257  A    between atoms: _608  and  _609
REMARK  258  A    between atoms: _608  and  _611
REMARK  259  A    between atoms: _611  and  _612
REMARK                            x       y       z     vdW  Elec       q    Type
REMARK                         _______ _______ _______ _____ _____    ______ ____
ROOT
ATOM      1  O   HOH     1      26.235  70.778  36.526  0.00  0.00    +0.000 OA
ENDROOT
TORSDOF 0
REMARK  Name = ../refined-set-2016/4jne/4jne_pocket.pdb
REMARK  259 active torsions:
REMARK  status: ('A' for Active; 'I' for Inactive)
REMARK    1  A    between atoms: _1  and  _3
REMARK    2  A    between atoms: _3  and  _4
REMARK    3  A    between atoms: _3  and  _6
REMARK    4  A    between atoms: _6  and  _7
REMARK    5  A    between atoms: _10  and  _12
REMARK    6  A    between atoms: _12  and  _13
REMARK    7  A    between atoms: _12  and  _15
REMARK    8  A    between atoms: _15  and  _16
REMARK    9  A    between atoms: _19  and  _21
REMARK   10  A    between atoms: _21  and  _22
REMARK   11  A    between atoms: _24  and  _26
REMARK   12  A    between atoms: _26  and  _27
REMARK   13  A    between atoms: _26  and  _29
REMARK   14  A    between atoms: _29  and  _30
REMARK   15  A    between atoms: _33  and  _35
REMARK   16  A    between atoms: _35  and  _36
REMARK   17  A    between atoms: _35  and  _38
REMARK   18  A    between atoms: _38  and  _39
REMARK   19  A    between atoms: _42  and  _44
REMARK   20  A    between atoms: _44  and  _45
REMARK   21  A    between atoms: _44  and  _47
REMARK   22  A    between atoms: _47  and  _48
REMARK   23  A    between atoms: _53  and  _55
REMARK   24  A    between atoms: _55  and  _56
REMARK   25  A    between atoms: _55  and  _58
REMARK   26  A    between atoms: _58  and  _59
REMARK   27  A    between atoms: _61  and  _63
REMARK   28  A    between atoms: _63  and  _64
REMARK   29  A    between atoms: _63  and  _66
REMARK   30  A    between atoms: _68  and  _70
REMARK   31  A    between atoms: _70  and  _71
REMARK   32  A    between atoms: _70  and  _73
REMARK   33  A    between atoms: _73  and  _74
REMARK   34  A    between atoms: _77  and  _79
REMARK   35  A    between atoms: _79  and  _80
REMARK   36  A    between atoms: _79  and  _82
REMARK   37  A    between atoms: _82  and  _83
REMARK   38  A    between atoms: _87  and  _88
REMARK   39  A    between atoms: _93  and  _95
REMARK   40  A    between atoms: _95  and  _96
REMARK   41  A    between atoms: _95  and  _98
REMARK   42  A    between atoms: _98  and  _99
REMARK   43  A    between atoms: _101  and  _103
REMARK   44  A    between atoms: _103  and  _104
REMARK   45  A    between atoms: _103  and  _106
REMARK   46  A    between atoms: _106  and  _107
REMARK   47  A    between atoms: _107  and  _108
REMARK   48  A    between atoms: _108  and  _109
REMARK   49  A    between atoms: _109  and  _110
REMARK   50  A    between atoms: _114  and  _116
REMARK   51  A    between atoms: _116  and  _117
REMARK   52  A    between atoms: _120  and  _122
REMARK   53  A    between atoms: _122  and  _123
REMARK   54  A    between atoms: _122  and  _125
REMARK   55  A    between atoms: _125  and  _126
REMARK   56  A    between atoms: _126  and  _127
REMARK   57  A    between atoms: _127  and  _128
REMARK   58  A    between atoms: _128  and  _129
REMARK   59  A    between atoms: _133  and  _135
REMARK   60  A    between atoms: _135  and  _136
REMARK   61  A    between atoms: _135  and  _138
REMARK   62  A    between atoms: _138  and  _139
REMARK   63  A    between atoms: _139  and  _140
REMARK   64  A    between atoms: _140  and  _141
REMARK   65  A    between atoms: _150  and  _152
REMARK   66  A    between atoms: _152  and  _153
REMARK   67  A    between atoms: _152  and  _155
REMARK   68  A    between atoms: _155  and  _156
REMARK   69  A    between atoms: _159  and  _161
REMARK   70  A    between atoms: _161  and  _162
REMARK   71  A    between atoms: _161  and  _164
REMARK   72  A    between atoms: _168  and  _169
REMARK   73  A    between atoms: _174  and  _176
REMARK   74  A    between atoms: _176  and  _177
REMARK   75  A    between atoms: _180  and  _182
REMARK   76  A    between atoms: _182  and  _183
REMARK   77  A    between atoms: _182  and  _185
REMARK   78  A    between atoms: _185  and  _186
REMARK   79  A    between atoms: _192  and  _194
REMARK   80  A    between atoms: _194  and  _195
REMARK   81  A    between atoms: _194  and  _197
REMARK   82  A    between atoms: _197  and  _198
REMARK   83  A    between atoms: _198  and  _199
REMARK   84  A    between atoms: _202  and  _204
REMARK   85  A    between atoms: _204  and  _205
REMARK   86  A    between atoms: _204  and  _207
REMARK   87  A    between atoms: _207  and  _208
REMARK   88  A    between atoms: _211  and  _213
REMARK   89  A    between atoms: _213  and  _214
REMARK   90  A    between atoms: _213  and  _216
REMARK   91  A    between atoms: _216  and  _217
REMARK   92  A    between atoms: _220  and  _222
REMARK   93  A    between atoms: _222  and  _223
REMARK   94  A    between atoms: _225  and  _227
REMARK   95  A    between atoms: _227  and  _228
REMARK   96  A    between atoms: _230  and  _232
REMARK   97  A    between atoms: _232  and  _233
REMARK   98  A    between atoms: _235  and  _237
REMARK   99  A    between atoms: _237  and  _238
REMARK  100  A    between atoms: _241  and  _243
REMARK  101  A    between atoms: _243  and  _244
REMARK  102  A    between atoms: _243  and  _246
REMARK  103  A    between atoms: _246  and  _247
REMARK  104  A    between atoms: _253  and  _255
REMARK  105  A    between atoms: _255  and  _256
REMARK  106  A    between atoms: _255  and  _258
REMARK  107  A    between atoms: _258  and  _259
REMARK  108  A    between atoms: _262  and  _264
REMARK  109  A    between atoms: _264  and  _265
REMARK  110  A    between atoms: _264  and  _267
REMARK  111  A    between atoms: _267  and  _268
REMARK  112  A    between atoms: _271  and  _273
REMARK  113  A    between atoms: _273  and  _274
REMARK  114  A    between atoms: _273  and  _276
REMARK  115  A    between atoms: _276  and  _277
REMARK  116  A    between atoms: _280  and  _282
REMARK  117  A    between atoms: _282  and  _283
REMARK  118  A    between atoms: _282  and  _285
REMARK  119  A    between atoms: _285  and  _286
REMARK  120  A    between atoms: _289  and  _291
REMARK  121  A    between atoms: _291  and  _292
REMARK  122  A    between atoms: _294  and  _296
REMARK  123  A    between atoms: _296  and  _297
REMARK  124  A    between atoms: _299  and  _301
REMARK  125  A    between atoms: _301  and  _302
REMARK  126  A    between atoms: _301  and  _304
REMARK  127  A    between atoms: _304  and  _305
REMARK  128  A    between atoms: _305  and  _306
REMARK  129  A    between atoms: _309  and  _311
REMARK  130  A    between atoms: _311  and  _312
REMARK  131  A    between atoms: _311  and  _314
REMARK  132  A    between atoms: _314  and  _315
REMARK  133  A    between atoms: _318  and  _320
REMARK  134  A    between atoms: _320  and  _321
REMARK  135  A    between atoms: _320  and  _323
REMARK  136  A    between atoms: _323  and  _324
REMARK  137  A    between atoms: _330  and  _332
REMARK  138  A    between atoms: _332  and  _333
REMARK  139  A    between atoms: _332  and  _335
REMARK  140  A    between atoms: _335  and  _336
REMARK  141  A    between atoms: _339  and  _341
REMARK  142  A    between atoms: _341  and  _342
REMARK  143  A    between atoms: _341  and  _344
REMARK  144  A    between atoms: _344  and  _345
REMARK  145  A    between atoms: _345  and  _346
REMARK  146  A    between atoms: _346  and  _347
REMARK  147  A    between atoms: _347  and  _348
REMARK  148  A    between atoms: _352  and  _354
REMARK  149  A    between atoms: _354  and  _355
REMARK  150  A    between atoms: _358  and  _360
REMARK  151  A    between atoms: _360  and  _361
REMARK  152  A    between atoms: _360  and  _363
REMARK  153  A    between atoms: _363  and  _364
REMARK  154  A    between atoms: _364  and  _365
REMARK  155  A    between atoms: _368  and  _370
REMARK  156  A    between atoms: _370  and  _371
REMARK  157  A    between atoms: _370  and  _373
REMARK  158  A    between atoms: _373  and  _374
REMARK  159  A    between atoms: _374  and  _375
REMARK  160  A    between atoms: _375  and  _376
REMARK  161  A    between atoms: _376  and  _377
REMARK  162  A    between atoms: _381  and  _383
REMARK  163  A    between atoms: _383  and  _384
REMARK  164  A    between atoms: _387  and  _389
REMARK  165  A    between atoms: _389  and  _390
REMARK  166  A    between atoms: _389  and  _392
REMARK  167  A    between atoms: _392  and  _393
REMARK  168  A    between atoms: _393  and  _394
REMARK  169  A    between atoms: _394  and  _395
REMARK  170  A    between atoms: _395  and  _396
REMARK  171  A    between atoms: _400  and  _402
REMARK  172  A    between atoms: _402  and  _403
REMARK  173  A    between atoms: _402  and  _405
REMARK  174  A    between atoms: _405  and  _406
REMARK  175  A    between atoms: _409  and  _411
REMARK  176  A    between atoms: _411  and  _412
REMARK  177  A    between atoms: _411  and  _414
REMARK  178  A    between atoms: _414  and  _415
REMARK  179  A    between atoms: _415  and  _416
REMARK  180  A    between atoms: _419  and  _421
REMARK  181  A    between atoms: _421  and  _422
REMARK  182  A    between atoms: _421  and  _424
REMARK  183  A    between atoms: _424  and  _425
REMARK  184  A    between atoms: _428  and  _430
REMARK  185  A    between atoms: _430  and  _431
REMARK  186  A    between atoms: _430  and  _433
REMARK  187  A    between atoms: _433  and  _434
REMARK  188  A    between atoms: _436  and  _438
REMARK  189  A    between atoms: _438  and  _439
REMARK  190  A    between atoms: _438  and  _441
REMARK  191  A    between atoms: _441  and  _442
REMARK  192  A    between atoms: _444  and  _446
REMARK  193  A    between atoms: _446  and  _447
REMARK  194  A    between atoms: _450  and  _452
REMARK  195  A    between atoms: _452  and  _453
REMARK  196  A    between atoms: _452  and  _455
REMARK  197  A    between atoms: _455  and  _456
REMARK  198  A    between atoms: _459  and  _461
REMARK  199  A    between atoms: _461  and  _462
REMARK  200  A    between atoms: _461  and  _464
REMARK  201  A    between atoms: _467  and  _469
REMARK  202  A    between atoms: _469  and  _470
REMARK  203  A    between atoms: _472  and  _474
REMARK  204  A    between atoms: _474  and  _475
REMARK  205  A    between atoms: _477  and  _479
REMARK  206  A    between atoms: _479  and  _480
REMARK  207  A    between atoms: _479  and  _482
REMARK  208  A    between atoms: _482  and  _483
REMARK  209  A    between atoms: _483  and  _484
REMARK  210  A    between atoms: _489  and  _491
REMARK  211  A    between atoms: _491  and  _492
REMARK  212  A    between atoms: _491  and  _494
REMARK  213  A    between atoms: _494  and  _495
REMARK  214  A    between atoms: _498  and  _500
REMARK  215  A    between atoms: _500  and  _501
REMARK  216  A    between atoms: _500  and  _503
REMARK  217  A    between atoms: _503  and  _504
REMARK  218  A    between atoms: _504  and  _505
REMARK  219  A    between atoms: _505  and  _506
REMARK  220  A    between atoms: _515  and  _517
REMARK  221  A    between atoms: _517  and  _518
REMARK  222  A    between atoms: _517  and  _520
REMARK  223  A    between atoms: _520  and  _521
REMARK  224  A    between atoms: _521  and  _522
REMARK  225  A    between atoms: _525  and  _526
REMARK  226  A    between atoms: _531  and  _533
REMARK  227  A    between atoms: _533  and  _534
REMARK  228  A    between atoms: _533  and  _536
REMARK  229  A    between atoms: _539  and  _541
REMARK  230  A    between atoms: _541  and  _542
REMARK  231  A    between atoms: _541  and  _544
REMARK  232  A    between atoms: _544  and  _545
REMARK  233  A    between atoms: _545  and  _546
REMARK  234  A    between atoms: _552  and  _553
REMARK  235  A    between atoms: _558  and  _560
REMARK  236  A    between atoms: _560  and  _561
REMARK  237  A    between atoms: _560  and  _563
REMARK  238  A    between atoms: _563  and  _564
REMARK  239  A    between atoms: _567  and  _569
REMARK  240  A    between atoms: _569  and  _570
REMARK  241  A    between atoms: _569  and  _572
REMARK  242  A    between atoms: _572  and  _573
REMARK  243  A    between atoms: _573  and  _574
REMARK  244  A    between atoms: _577  and  _579
REMARK  245  A    between atoms: _579  and  _580
REMARK  246  A    between atoms: _579  and  _582
REMARK  247  A    between atoms: _585  and  _587
REMARK  248  A    between atoms: _587  and  _588
REMARK  249  A    between atoms: _591  and  _593
REMARK  250  A    between atoms: _593  and  _594
REMARK  251  A    between atoms: _593  and  _596
REMARK  252  A    between atoms: _596  and  _597
REMARK  253  A    between atoms: _597  and  _598
REMARK  254  A    between atoms: _601  and  _603
REMARK  255  A    between atoms: _603  and  _604
REMARK  256  A    between atoms: _606  and  _608
REMARK  257  A    between atoms: _608  and  _609
REMARK  258  A    between atoms: _608  and  _611
REMARK  259  A    between atoms: _611  and  _612
REMARK                            x       y       z     vdW  Elec       q    Type
REMARK                         _______ _______ _______ _____ _____    ______ ____
ROOT
ATOM      1  O   HOH     1      17.846  82.234  26.866  0.00  0.00    +0.000 OA
ENDROOT
TORSDOF 0
REMARK  Name = ../refined-set-2016/4jne/4jne_pocket.pdb
REMARK  259 active torsions:
REMARK  status: ('A' for Active; 'I' for Inactive)
REMARK    1  A    between atoms: _1  and  _3
REMARK    2  A    between atoms: _3  and  _4
REMARK    3  A    between atoms: _3  and  _6
REMARK    4  A    between atoms: _6  and  _7
REMARK    5  A    between atoms: _10  and  _12
REMARK    6  A    between atoms: _12  and  _13
REMARK    7  A    between atoms: _12  and  _15
REMARK    8  A    between atoms: _15  and  _16
REMARK    9  A    between atoms: _19  and  _21
REMARK   10  A    between atoms: _21  and  _22
REMARK   11  A    between atoms: _24  and  _26
REMARK   12  A    between atoms: _26  and  _27
REMARK   13  A    between atoms: _26  and  _29
REMARK   14  A    between atoms: _29  and  _30
REMARK   15  A    between atoms: _33  and  _35
REMARK   16  A    between atoms: _35  and  _36
REMARK   17  A    between atoms: _35  and  _38
REMARK   18  A    between atoms: _38  and  _39
REMARK   19  A    between atoms: _42  and  _44
REMARK   20  A    between atoms: _44  and  _45
REMARK   21  A    between atoms: _44  and  _47
REMARK   22  A    between atoms: _47  and  _48
REMARK   23  A    between atoms: _53  and  _55
REMARK   24  A    between atoms: _55  and  _56
REMARK   25  A    between atoms: _55  and  _58
REMARK   26  A    between atoms: _58  and  _59
REMARK   27  A    between atoms: _61  and  _63
REMARK   28  A    between atoms: _63  and  _64
REMARK   29  A    between atoms: _63  and  _66
REMARK   30  A    between atoms: _68  and  _70
REMARK   31  A    between atoms: _70  and  _71
REMARK   32  A    between atoms: _70  and  _73
REMARK   33  A    between atoms: _73  and  _74
REMARK   34  A    between atoms: _77  and  _79
REMARK   35  A    between atoms: _79  and  _80
REMARK   36  A    between atoms: _79  and  _82
REMARK   37  A    between atoms: _82  and  _83
REMARK   38  A    between atoms: _87  and  _88
REMARK   39  A    between atoms: _93  and  _95
REMARK   40  A    between atoms: _95  and  _96
REMARK   41  A    between atoms: _95  and  _98
REMARK   42  A    between atoms: _98  and  _99
REMARK   43  A    between atoms: _101  and  _103
REMARK   44  A    between atoms: _103  and  _104
REMARK   45  A    between atoms: _103  and  _106
REMARK   46  A    between atoms: _106  and  _107
REMARK   47  A    between atoms: _107  and  _108
REMARK   48  A    between atoms: _108  and  _109
REMARK   49  A    between atoms: _109  and  _110
REMARK   50  A    between atoms: _114  and  _116
REMARK   51  A    between atoms: _116  and  _117
REMARK   52  A    between atoms: _120  and  _122
REMARK   53  A    between atoms: _122  and  _123
REMARK   54  A    between atoms: _122  and  _125
REMARK   55  A    between atoms: _125  and  _126
REMARK   56  A    between atoms: _126  and  _127
REMARK   57  A    between atoms: _127  and  _128
REMARK   58  A    between atoms: _128  and  _129
REMARK   59  A    between atoms: _133  and  _135
REMARK   60  A    between atoms: _135  and  _136
REMARK   61  A    between atoms: _135  and  _138
REMARK   62  A    between atoms: _138  and  _139
REMARK   63  A    between atoms: _139  and  _140
REMARK   64  A    between atoms: _140  and  _141
REMARK   65  A    between atoms: _150  and  _152
REMARK   66  A    between atoms: _152  and  _153
REMARK   67  A    between atoms: _152  and  _155
REMARK   68  A    between atoms: _155  and  _156
REMARK   69  A    between atoms: _159  and  _161
REMARK   70  A    between atoms: _161  and  _162
REMARK   71  A    between atoms: _161  and  _164
REMARK   72  A    between atoms: _168  and  _169
REMARK   73  A    between atoms: _174  and  _176
REMARK   74  A    between atoms: _176  and  _177
REMARK   75  A    between atoms: _180  and  _182
REMARK   76  A    between atoms: _182  and  _183
REMARK   77  A    between atoms: _182  and  _185
REMARK   78  A    between atoms: _185  and  _186
REMARK   79  A    between atoms: _192  and  _194
REMARK   80  A    between atoms: _194  and  _195
REMARK   81  A    between atoms: _194  and  _197
REMARK   82  A    between atoms: _197  and  _198
REMARK   83  A    between atoms: _198  and  _199
REMARK   84  A    between atoms: _202  and  _204
REMARK   85  A    between atoms: _204  and  _205
REMARK   86  A    between atoms: _204  and  _207
REMARK   87  A    between atoms: _207  and  _208
REMARK   88  A    between atoms: _211  and  _213
REMARK   89  A    between atoms: _213  and  _214
REMARK   90  A    between atoms: _213  and  _216
REMARK   91  A    between atoms: _216  and  _217
REMARK   92  A    between atoms: _220  and  _222
REMARK   93  A    between atoms: _222  and  _223
REMARK   94  A    between atoms: _225  and  _227
REMARK   95  A    between atoms: _227  and  _228
REMARK   96  A    between atoms: _230  and  _232
REMARK   97  A    between atoms: _232  and  _233
REMARK   98  A    between atoms: _235  and  _237
REMARK   99  A    between atoms: _237  and  _238
REMARK  100  A    between atoms: _241  and  _243
REMARK  101  A    between atoms: _243  and  _244
REMARK  102  A    between atoms: _243  and  _246
REMARK  103  A    between atoms: _246  and  _247
REMARK  104  A    between atoms: _253  and  _255
REMARK  105  A    between atoms: _255  and  _256
REMARK  106  A    between atoms: _255  and  _258
REMARK  107  A    between atoms: _258  and  _259
REMARK  108  A    between atoms: _262  and  _264
REMARK  109  A    between atoms: _264  and  _265
REMARK  110  A    between atoms: _264  and  _267
REMARK  111  A    between atoms: _267  and  _268
REMARK  112  A    between atoms: _271  and  _273
REMARK  113  A    between atoms: _273  and  _274
REMARK  114  A    between atoms: _273  and  _276
REMARK  115  A    between atoms: _276  and  _277
REMARK  116  A    between atoms: _280  and  _282
REMARK  117  A    between atoms: _282  and  _283
REMARK  118  A    between atoms: _282  and  _285
REMARK  119  A    between atoms: _285  and  _286
REMARK  120  A    between atoms: _289  and  _291
REMARK  121  A    between atoms: _291  and  _292
REMARK  122  A    between atoms: _294  and  _296
REMARK  123  A    between atoms: _296  and  _297
REMARK  124  A    between atoms: _299  and  _301
REMARK  125  A    between atoms: _301  and  _302
REMARK  126  A    between atoms: _301  and  _304
REMARK  127  A    between atoms: _304  and  _305
REMARK  128  A    between atoms: _305  and  _306
REMARK  129  A    between atoms: _309  and  _311
REMARK  130  A    between atoms: _311  and  _312
REMARK  131  A    between atoms: _311  and  _314
REMARK  132  A    between atoms: _314  and  _315
REMARK  133  A    between atoms: _318  and  _320
REMARK  134  A    between atoms: _320  and  _321
REMARK  135  A    between atoms: _320  and  _323
REMARK  136  A    between atoms: _323  and  _324
REMARK  137  A    between atoms: _330  and  _332
REMARK  138  A    between atoms: _332  and  _333
REMARK  139  A    between atoms: _332  and  _335
REMARK  140  A    between atoms: _335  and  _336
REMARK  141  A    between atoms: _339  and  _341
REMARK  142  A    between atoms: _341  and  _342
REMARK  143  A    between atoms: _341  and  _344
REMARK  144  A    between atoms: _344  and  _345
REMARK  145  A    between atoms: _345  and  _346
REMARK  146  A    between atoms: _346  and  _347
REMARK  147  A    between atoms: _347  and  _348
REMARK  148  A    between atoms: _352  and  _354
REMARK  149  A    between atoms: _354  and  _355
REMARK  150  A    between atoms: _358  and  _360
REMARK  151  A    between atoms: _360  and  _361
REMARK  152  A    between atoms: _360  and  _363
REMARK  153  A    between atoms: _363  and  _364
REMARK  154  A    between atoms: _364  and  _365
REMARK  155  A    between atoms: _368  and  _370
REMARK  156  A    between atoms: _370  and  _371
REMARK  157  A    between atoms: _370  and  _373
REMARK  158  A    between atoms: _373  and  _374
REMARK  159  A    between atoms: _374  and  _375
REMARK  160  A    between atoms: _375  and  _376
REMARK  161  A    between atoms: _376  and  _377
REMARK  162  A    between atoms: _381  and  _383
REMARK  163  A    between atoms: _383  and  _384
REMARK  164  A    between atoms: _387  and  _389
REMARK  165  A    between atoms: _389  and  _390
REMARK  166  A    between atoms: _389  and  _392
REMARK  167  A    between atoms: _392  and  _393
REMARK  168  A    between atoms: _393  and  _394
REMARK  169  A    between atoms: _394  and  _395
REMARK  170  A    between atoms: _395  and  _396
REMARK  171  A    between atoms: _400  and  _402
REMARK  172  A    between atoms: _402  and  _403
REMARK  173  A    between atoms: _402  and  _405
REMARK  174  A    between atoms: _405  and  _406
REMARK  175  A    between atoms: _409  and  _411
REMARK  176  A    between atoms: _411  and  _412
REMARK  177  A    between atoms: _411  and  _414
REMARK  178  A    between atoms: _414  and  _415
REMARK  179  A    between atoms: _415  and  _416
REMARK  180  A    between atoms: _419  and  _421
REMARK  181  A    between atoms: _421  and  _422
REMARK  182  A    between atoms: _421  and  _424
REMARK  183  A    between atoms: _424  and  _425
REMARK  184  A    between atoms: _428  and  _430
REMARK  185  A    between atoms: _430  and  _431
REMARK  186  A    between atoms: _430  and  _433
REMARK  187  A    between atoms: _433  and  _434
REMARK  188  A    between atoms: _436  and  _438
REMARK  189  A    between atoms: _438  and  _439
REMARK  190  A    between atoms: _438  and  _441
REMARK  191  A    between atoms: _441  and  _442
REMARK  192  A    between atoms: _444  and  _446
REMARK  193  A    between atoms: _446  and  _447
REMARK  194  A    between atoms: _450  and  _452
REMARK  195  A    between atoms: _452  and  _453
REMARK  196  A    between atoms: _452  and  _455
REMARK  197  A    between atoms: _455  and  _456
REMARK  198  A    between atoms: _459  and  _461
REMARK  199  A    between atoms: _461  and  _462
REMARK  200  A    between atoms: _461  and  _464
REMARK  201  A    between atoms: _467  and  _469
REMARK  202  A    between atoms: _469  and  _470
REMARK  203  A    between atoms: _472  and  _474
REMARK  204  A    between atoms: _474  and  _475
REMARK  205  A    between atoms: _477  and  _479
REMARK  206  A    between atoms: _479  and  _480
REMARK  207  A    between atoms: _479  and  _482
REMARK  208  A    between atoms: _482  and  _483
REMARK  209  A    between atoms: _483  and  _484
REMARK  210  A    between atoms: _489  and  _491
REMARK  211  A    between atoms: _491  and  _492
REMARK  212  A    between atoms: _491  and  _494
REMARK  213  A    between atoms: _494  and  _495
REMARK  214  A    between atoms: _498  and  _500
REMARK  215  A    between atoms: _500  and  _501
REMARK  216  A    between atoms: _500  and  _503
REMARK  217  A    between atoms: _503  and  _504
REMARK  218  A    between atoms: _504  and  _505
REMARK  219  A    between atoms: _505  and  _506
REMARK  220  A    between atoms: _515  and  _517
REMARK  221  A    between atoms: _517  and  _518
REMARK  222  A    between atoms: _517  and  _520
REMARK  223  A    between atoms: _520  and  _521
REMARK  224  A    between atoms: _521  and  _522
REMARK  225  A    between atoms: _525  and  _526
REMARK  226  A    between atoms: _531  and  _533
REMARK  227  A    between atoms: _533  and  _534
REMARK  228  A    between atoms: _533  and  _536
REMARK  229  A    between atoms: _539  and  _541
REMARK  230  A    between atoms: _541  and  _542
REMARK  231  A    between atoms: _541  and  _544
REMARK  232  A    between atoms: _544  and  _545
REMARK  233  A    between atoms: _545  and  _546
REMARK  234  A    between atoms: _552  and  _553
REMARK  235  A    between atoms: _558  and  _560
REMARK  236  A    between atoms: _560  and  _561
REMARK  237  A    between atoms: _560  and  _563
REMARK  238  A    between atoms: _563  and  _564
REMARK  239  A    between atoms: _567  and  _569
REMARK  240  A    between atoms: _569  and  _570
REMARK  241  A    between atoms: _569  and  _572
REMARK  242  A    between atoms: _572  and  _573
REMARK  243  A    between atoms: _573  and  _574
REMARK  244  A    between atoms: _577  and  _579
REMARK  245  A    between atoms: _579  and  _580
REMARK  246  A    between atoms: _579  and  _582
REMARK  247  A    between atoms: _585  and  _587
REMARK  248  A    between atoms: _587  and  _588
REMARK  249  A    between atoms: _591  and  _593
REMARK  250  A    between atoms: _593  and  _594
REMARK  251  A    between atoms: _593  and  _596
REMARK  252  A    between atoms: _596  and  _597
REMARK  253  A    between atoms: _597  and  _598
REMARK  254  A    between atoms: _601  and  _603
REMARK  255  A    between atoms: _603  and  _604
REMARK  256  A    between atoms: _606  and  _608
REMARK  257  A    between atoms: _608  and  _609
REMARK  258  A    between atoms: _608  and  _611
REMARK  259  A    between atoms: _611  and  _612
REMARK                            x       y       z     vdW  Elec       q    Type
REMARK                         _______ _______ _______ _____ _____    ______ ____
ROOT
ATOM      1  O   HOH     1      11.168  68.056  30.830  0.00  0.00    +0.000 OA
ENDROOT
TORSDOF 0
REMARK  Name = ../refined-set-2016/4jne/4jne_pocket.pdb
REMARK  259 active torsions:
REMARK  status: ('A' for Active; 'I' for Inactive)
REMARK    1  A    between atoms: _1  and  _3
REMARK    2  A    between atoms: _3  and  _4
REMARK    3  A    between atoms: _3  and  _6
REMARK    4  A    between atoms: _6  and  _7
REMARK    5  A    between atoms: _10  and  _12
REMARK    6  A    between atoms: _12  and  _13
REMARK    7  A    between atoms: _12  and  _15
REMARK    8  A    between atoms: _15  and  _16
REMARK    9  A    between atoms: _19  and  _21
REMARK   10  A    between atoms: _21  and  _22
REMARK   11  A    between atoms: _24  and  _26
REMARK   12  A    between atoms: _26  and  _27
REMARK   13  A    between atoms: _26  and  _29
REMARK   14  A    between atoms: _29  and  _30
REMARK   15  A    between atoms: _33  and  _35
REMARK   16  A    between atoms: _35  and  _36
REMARK   17  A    between atoms: _35  and  _38
REMARK   18  A    between atoms: _38  and  _39
REMARK   19  A    between atoms: _42  and  _44
REMARK   20  A    between atoms: _44  and  _45
REMARK   21  A    between atoms: _44  and  _47
REMARK   22  A    between atoms: _47  and  _48
REMARK   23  A    between atoms: _53  and  _55
REMARK   24  A    between atoms: _55  and  _56
REMARK   25  A    between atoms: _55  and  _58
REMARK   26  A    between atoms: _58  and  _59
REMARK   27  A    between atoms: _61  and  _63
REMARK   28  A    between atoms: _63  and  _64
REMARK   29  A    between atoms: _63  and  _66
REMARK   30  A    between atoms: _68  and  _70
REMARK   31  A    between atoms: _70  and  _71
REMARK   32  A    between atoms: _70  and  _73
REMARK   33  A    between atoms: _73  and  _74
REMARK   34  A    between atoms: _77  and  _79
REMARK   35  A    between atoms: _79  and  _80
REMARK   36  A    between atoms: _79  and  _82
REMARK   37  A    between atoms: _82  and  _83
REMARK   38  A    between atoms: _87  and  _88
REMARK   39  A    between atoms: _93  and  _95
REMARK   40  A    between atoms: _95  and  _96
REMARK   41  A    between atoms: _95  and  _98
REMARK   42  A    between atoms: _98  and  _99
REMARK   43  A    between atoms: _101  and  _103
REMARK   44  A    between atoms: _103  and  _104
REMARK   45  A    between atoms: _103  and  _106
REMARK   46  A    between atoms: _106  and  _107
REMARK   47  A    between atoms: _107  and  _108
REMARK   48  A    between atoms: _108  and  _109
REMARK   49  A    between atoms: _109  and  _110
REMARK   50  A    between atoms: _114  and  _116
REMARK   51  A    between atoms: _116  and  _117
REMARK   52  A    between atoms: _120  and  _122
REMARK   53  A    between atoms: _122  and  _123
REMARK   54  A    between atoms: _122  and  _125
REMARK   55  A    between atoms: _125  and  _126
REMARK   56  A    between atoms: _126  and  _127
REMARK   57  A    between atoms: _127  and  _128
REMARK   58  A    between atoms: _128  and  _129
REMARK   59  A    between atoms: _133  and  _135
REMARK   60  A    between atoms: _135  and  _136
REMARK   61  A    between atoms: _135  and  _138
REMARK   62  A    between atoms: _138  and  _139
REMARK   63  A    between atoms: _139  and  _140
REMARK   64  A    between atoms: _140  and  _141
REMARK   65  A    between atoms: _150  and  _152
REMARK   66  A    between atoms: _152  and  _153
REMARK   67  A    between atoms: _152  and  _155
REMARK   68  A    between atoms: _155  and  _156
REMARK   69  A    between atoms: _159  and  _161
REMARK   70  A    between atoms: _161  and  _162
REMARK   71  A    between atoms: _161  and  _164
REMARK   72  A    between atoms: _168  and  _169
REMARK   73  A    between atoms: _174  and  _176
REMARK   74  A    between atoms: _176  and  _177
REMARK   75  A    between atoms: _180  and  _182
REMARK   76  A    between atoms: _182  and  _183
REMARK   77  A    between atoms: _182  and  _185
REMARK   78  A    between atoms: _185  and  _186
REMARK   79  A    between atoms: _192  and  _194
REMARK   80  A    between atoms: _194  and  _195
REMARK   81  A    between atoms: _194  and  _197
REMARK   82  A    between atoms: _197  and  _198
REMARK   83  A    between atoms: _198  and  _199
REMARK   84  A    between atoms: _202  and  _204
REMARK   85  A    between atoms: _204  and  _205
REMARK   86  A    between atoms: _204  and  _207
REMARK   87  A    between atoms: _207  and  _208
REMARK   88  A    between atoms: _211  and  _213
REMARK   89  A    between atoms: _213  and  _214
REMARK   90  A    between atoms: _213  and  _216
REMARK   91  A    between atoms: _216  and  _217
REMARK   92  A    between atoms: _220  and  _222
REMARK   93  A    between atoms: _222  and  _223
REMARK   94  A    between atoms: _225  and  _227
REMARK   95  A    between atoms: _227  and  _228
REMARK   96  A    between atoms: _230  and  _232
REMARK   97  A    between atoms: _232  and  _233
REMARK   98  A    between atoms: _235  and  _237
REMARK   99  A    between atoms: _237  and  _238
REMARK  100  A    between atoms: _241  and  _243
REMARK  101  A    between atoms: _243  and  _244
REMARK  102  A    between atoms: _243  and  _246
REMARK  103  A    between atoms: _246  and  _247
REMARK  104  A    between atoms: _253  and  _255
REMARK  105  A    between atoms: _255  and  _256
REMARK  106  A    between atoms: _255  and  _258
REMARK  107  A    between atoms: _258  and  _259
REMARK  108  A    between atoms: _262  and  _264
REMARK  109  A    between atoms: _264  and  _265
REMARK  110  A    between atoms: _264  and  _267
REMARK  111  A    between atoms: _267  and  _268
REMARK  112  A    between atoms: _271  and  _273
REMARK  113  A    between atoms: _273  and  _274
REMARK  114  A    between atoms: _273  and  _276
REMARK  115  A    between atoms: _276  and  _277
REMARK  116  A    between atoms: _280  and  _282
REMARK  117  A    between atoms: _282  and  _283
REMARK  118  A    between atoms: _282  and  _285
REMARK  119  A    between atoms: _285  and  _286
REMARK  120  A    between atoms: _289  and  _291
REMARK  121  A    between atoms: _291  and  _292
REMARK  122  A    between atoms: _294  and  _296
REMARK  123  A    between atoms: _296  and  _297
REMARK  124  A    between atoms: _299  and  _301
REMARK  125  A    between atoms: _301  and  _302
REMARK  126  A    between atoms: _301  and  _304
REMARK  127  A    between atoms: _304  and  _305
REMARK  128  A    between atoms: _305  and  _306
REMARK  129  A    between atoms: _309  and  _311
REMARK  130  A    between atoms: _311  and  _312
REMARK  131  A    between atoms: _311  and  _314
REMARK  132  A    between atoms: _314  and  _315
REMARK  133  A    between atoms: _318  and  _320
REMARK  134  A    between atoms: _320  and  _321
REMARK  135  A    between atoms: _320  and  _323
REMARK  136  A    between atoms: _323  and  _324
REMARK  137  A    between atoms: _330  and  _332
REMARK  138  A    between atoms: _332  and  _333
REMARK  139  A    between atoms: _332  and  _335
REMARK  140  A    between atoms: _335  and  _336
REMARK  141  A    between atoms: _339  and  _341
REMARK  142  A    between atoms: _341  and  _342
REMARK  143  A    between atoms: _341  and  _344
REMARK  144  A    between atoms: _344  and  _345
REMARK  145  A    between atoms: _345  and  _346
REMARK  146  A    between atoms: _346  and  _347
REMARK  147  A    between atoms: _347  and  _348
REMARK  148  A    between atoms: _352  and  _354
REMARK  149  A    between atoms: _354  and  _355
REMARK  150  A    between atoms: _358  and  _360
REMARK  151  A    between atoms: _360  and  _361
REMARK  152  A    between atoms: _360  and  _363
REMARK  153  A    between atoms: _363  and  _364
REMARK  154  A    between atoms: _364  and  _365
REMARK  155  A    between atoms: _368  and  _370
REMARK  156  A    between atoms: _370  and  _371
REMARK  157  A    between atoms: _370  and  _373
REMARK  158  A    between atoms: _373  and  _374
REMARK  159  A    between atoms: _374  and  _375
REMARK  160  A    between atoms: _375  and  _376
REMARK  161  A    between atoms: _376  and  _377
REMARK  162  A    between atoms: _381  and  _383
REMARK  163  A    between atoms: _383  and  _384
REMARK  164  A    between atoms: _387  and  _389
REMARK  165  A    between atoms: _389  and  _390
REMARK  166  A    between atoms: _389  and  _392
REMARK  167  A    between atoms: _392  and  _393
REMARK  168  A    between atoms: _393  and  _394
REMARK  169  A    between atoms: _394  and  _395
REMARK  170  A    between atoms: _395  and  _396
REMARK  171  A    between atoms: _400  and  _402
REMARK  172  A    between atoms: _402  and  _403
REMARK  173  A    between atoms: _402  and  _405
REMARK  174  A    between atoms: _405  and  _406
REMARK  175  A    between atoms: _409  and  _411
REMARK  176  A    between atoms: _411  and  _412
REMARK  177  A    between atoms: _411  and  _414
REMARK  178  A    between atoms: _414  and  _415
REMARK  179  A    between atoms: _415  and  _416
REMARK  180  A    between atoms: _419  and  _421
REMARK  181  A    between atoms: _421  and  _422
REMARK  182  A    between atoms: _421  and  _424
REMARK  183  A    between atoms: _424  and  _425
REMARK  184  A    between atoms: _428  and  _430
REMARK  185  A    between atoms: _430  and  _431
REMARK  186  A    between atoms: _430  and  _433
REMARK  187  A    between atoms: _433  and  _434
REMARK  188  A    between atoms: _436  and  _438
REMARK  189  A    between atoms: _438  and  _439
REMARK  190  A    between atoms: _438  and  _441
REMARK  191  A    between atoms: _441  and  _442
REMARK  192  A    between atoms: _444  and  _446
REMARK  193  A    between atoms: _446  and  _447
REMARK  194  A    between atoms: _450  and  _452
REMARK  195  A    between atoms: _452  and  _453
REMARK  196  A    between atoms: _452  and  _455
REMARK  197  A    between atoms: _455  and  _456
REMARK  198  A    between atoms: _459  and  _461
REMARK  199  A    between atoms: _461  and  _462
REMARK  200  A    between atoms: _461  and  _464
REMARK  201  A    between atoms: _467  and  _469
REMARK  202  A    between atoms: _469  and  _470
REMARK  203  A    between atoms: _472  and  _474
REMARK  204  A    between atoms: _474  and  _475
REMARK  205  A    between atoms: _477  and  _479
REMARK  206  A    between atoms: _479  and  _480
REMARK  207  A    between atoms: _479  and  _482
REMARK  208  A    between atoms: _482  and  _483
REMARK  209  A    between atoms: _483  and  _484
REMARK  210  A    between atoms: _489  and  _491
REMARK  211  A    between atoms: _491  and  _492
REMARK  212  A    between atoms: _491  and  _494
REMARK  213  A    between atoms: _494  and  _495
REMARK  214  A    between atoms: _498  and  _500
REMARK  215  A    between atoms: _500  and  _501
REMARK  216  A    between atoms: _500  and  _503
REMARK  217  A    between atoms: _503  and  _504
REMARK  218  A    between atoms: _504  and  _505
REMARK  219  A    between atoms: _505  and  _506
REMARK  220  A    between atoms: _515  and  _517
REMARK  221  A    between atoms: _517  and  _518
REMARK  222  A    between atoms: _517  and  _520
REMARK  223  A    between atoms: _520  and  _521
REMARK  224  A    between atoms: _521  and  _522
REMARK  225  A    between atoms: _525  and  _526
REMARK  226  A    between atoms: _531  and  _533
REMARK  227  A    between atoms: _533  and  _534
REMARK  228  A    between atoms: _533  and  _536
REMARK  229  A    between atoms: _539  and  _541
REMARK  230  A    between atoms: _541  and  _542
REMARK  231  A    between atoms: _541  and  _544
REMARK  232  A    between atoms: _544  and  _545
REMARK  233  A    between atoms: _545  and  _546
REMARK  234  A    between atoms: _552  and  _553
REMARK  235  A    between atoms: _558  and  _560
REMARK  236  A    between atoms: _560  and  _561
REMARK  237  A    between atoms: _560  and  _563
REMARK  238  A    between atoms: _563  and  _564
REMARK  239  A    between atoms: _567  and  _569
REMARK  240  A    between atoms: _569  and  _570
REMARK  241  A    between atoms: _569  and  _572
REMARK  242  A    between atoms: _572  and  _573
REMARK  243  A    between atoms: _573  and  _574
REMARK  244  A    between atoms: _577  and  _579
REMARK  245  A    between atoms: _579  and  _580
REMARK  246  A    between atoms: _579  and  _582
REMARK  247  A    between atoms: _585  and  _587
REMARK  248  A    between atoms: _587  and  _588
REMARK  249  A    between atoms: _591  and  _593
REMARK  250  A    between atoms: _593  and  _594
REMARK  251  A    between atoms: _593  and  _596
REMARK  252  A    between atoms: _596  and  _597
REMARK  253  A    between atoms: _597  and  _598
REMARK  254  A    between atoms: _601  and  _603
REMARK  255  A    between atoms: _603  and  _604
REMARK  256  A    between atoms: _606  and  _608
REMARK  257  A    between atoms: _608  and  _609
REMARK  258  A    between atoms: _608  and  _611
REMARK  259  A    between atoms: _611  and  _612
REMARK                            x       y       z     vdW  Elec       q    Type
REMARK                         _______ _______ _______ _____ _____    ______ ____
ROOT
ATOM      1  O   HOH     1      24.352  70.879  26.188  0.00  0.00    +0.000 OA
ENDROOT
TORSDOF 0
REMARK  Name = ../refined-set-2016/4jne/4jne_pocket.pdb
REMARK  259 active torsions:
REMARK  status: ('A' for Active; 'I' for Inactive)
REMARK    1  A    between atoms: _1  and  _3
REMARK    2  A    between atoms: _3  and  _4
REMARK    3  A    between atoms: _3  and  _6
REMARK    4  A    between atoms: _6  and  _7
REMARK    5  A    between atoms: _10  and  _12
REMARK    6  A    between atoms: _12  and  _13
REMARK    7  A    between atoms: _12  and  _15
REMARK    8  A    between atoms: _15  and  _16
REMARK    9  A    between atoms: _19  and  _21
REMARK   10  A    between atoms: _21  and  _22
REMARK   11  A    between atoms: _24  and  _26
REMARK   12  A    between atoms: _26  and  _27
REMARK   13  A    between atoms: _26  and  _29
REMARK   14  A    between atoms: _29  and  _30
REMARK   15  A    between atoms: _33  and  _35
REMARK   16  A    between atoms: _35  and  _36
REMARK   17  A    between atoms: _35  and  _38
REMARK   18  A    between atoms: _38  and  _39
REMARK   19  A    between atoms: _42  and  _44
REMARK   20  A    between atoms: _44  and  _45
REMARK   21  A    between atoms: _44  and  _47
REMARK   22  A    between atoms: _47  and  _48
REMARK   23  A    between atoms: _53  and  _55
REMARK   24  A    between atoms: _55  and  _56
REMARK   25  A    between atoms: _55  and  _58
REMARK   26  A    between atoms: _58  and  _59
REMARK   27  A    between atoms: _61  and  _63
REMARK   28  A    between atoms: _63  and  _64
REMARK   29  A    between atoms: _63  and  _66
REMARK   30  A    between atoms: _68  and  _70
REMARK   31  A    between atoms: _70  and  _71
REMARK   32  A    between atoms: _70  and  _73
REMARK   33  A    between atoms: _73  and  _74
REMARK   34  A    between atoms: _77  and  _79
REMARK   35  A    between atoms: _79  and  _80
REMARK   36  A    between atoms: _79  and  _82
REMARK   37  A    between atoms: _82  and  _83
REMARK   38  A    between atoms: _87  and  _88
REMARK   39  A    between atoms: _93  and  _95
REMARK   40  A    between atoms: _95  and  _96
REMARK   41  A    between atoms: _95  and  _98
REMARK   42  A    between atoms: _98  and  _99
REMARK   43  A    between atoms: _101  and  _103
REMARK   44  A    between atoms: _103  and  _104
REMARK   45  A    between atoms: _103  and  _106
REMARK   46  A    between atoms: _106  and  _107
REMARK   47  A    between atoms: _107  and  _108
REMARK   48  A    between atoms: _108  and  _109
REMARK   49  A    between atoms: _109  and  _110
REMARK   50  A    between atoms: _114  and  _116
REMARK   51  A    between atoms: _116  and  _117
REMARK   52  A    between atoms: _120  and  _122
REMARK   53  A    between atoms: _122  and  _123
REMARK   54  A    between atoms: _122  and  _125
REMARK   55  A    between atoms: _125  and  _126
REMARK   56  A    between atoms: _126  and  _127
REMARK   57  A    between atoms: _127  and  _128
REMARK   58  A    between atoms: _128  and  _129
REMARK   59  A    between atoms: _133  and  _135
REMARK   60  A    between atoms: _135  and  _136
REMARK   61  A    between atoms: _135  and  _138
REMARK   62  A    between atoms: _138  and  _139
REMARK   63  A    between atoms: _139  and  _140
REMARK   64  A    between atoms: _140  and  _141
REMARK   65  A    between atoms: _150  and  _152
REMARK   66  A    between atoms: _152  and  _153
REMARK   67  A    between atoms: _152  and  _155
REMARK   68  A    between atoms: _155  and  _156
REMARK   69  A    between atoms: _159  and  _161
REMARK   70  A    between atoms: _161  and  _162
REMARK   71  A    between atoms: _161  and  _164
REMARK   72  A    between atoms: _168  and  _169
REMARK   73  A    between atoms: _174  and  _176
REMARK   74  A    between atoms: _176  and  _177
REMARK   75  A    between atoms: _180  and  _182
REMARK   76  A    between atoms: _182  and  _183
REMARK   77  A    between atoms: _182  and  _185
REMARK   78  A    between atoms: _185  and  _186
REMARK   79  A    between atoms: _192  and  _194
REMARK   80  A    between atoms: _194  and  _195
REMARK   81  A    between atoms: _194  and  _197
REMARK   82  A    between atoms: _197  and  _198
REMARK   83  A    between atoms: _198  and  _199
REMARK   84  A    between atoms: _202  and  _204
REMARK   85  A    between atoms: _204  and  _205
REMARK   86  A    between atoms: _204  and  _207
REMARK   87  A    between atoms: _207  and  _208
REMARK   88  A    between atoms: _211  and  _213
REMARK   89  A    between atoms: _213  and  _214
REMARK   90  A    between atoms: _213  and  _216
REMARK   91  A    between atoms: _216  and  _217
REMARK   92  A    between atoms: _220  and  _222
REMARK   93  A    between atoms: _222  and  _223
REMARK   94  A    between atoms: _225  and  _227
REMARK   95  A    between atoms: _227  and  _228
REMARK   96  A    between atoms: _230  and  _232
REMARK   97  A    between atoms: _232  and  _233
REMARK   98  A    between atoms: _235  and  _237
REMARK   99  A    between atoms: _237  and  _238
REMARK  100  A    between atoms: _241  and  _243
REMARK  101  A    between atoms: _243  and  _244
REMARK  102  A    between atoms: _243  and  _246
REMARK  103  A    between atoms: _246  and  _247
REMARK  104  A    between atoms: _253  and  _255
REMARK  105  A    between atoms: _255  and  _256
REMARK  106  A    between atoms: _255  and  _258
REMARK  107  A    between atoms: _258  and  _259
REMARK  108  A    between atoms: _262  and  _264
REMARK  109  A    between atoms: _264  and  _265
REMARK  110  A    between atoms: _264  and  _267
REMARK  111  A    between atoms: _267  and  _268
REMARK  112  A    between atoms: _271  and  _273
REMARK  113  A    between atoms: _273  and  _274
REMARK  114  A    between atoms: _273  and  _276
REMARK  115  A    between atoms: _276  and  _277
REMARK  116  A    between atoms: _280  and  _282
REMARK  117  A    between atoms: _282  and  _283
REMARK  118  A    between atoms: _282  and  _285
REMARK  119  A    between atoms: _285  and  _286
REMARK  120  A    between atoms: _289  and  _291
REMARK  121  A    between atoms: _291  and  _292
REMARK  122  A    between atoms: _294  and  _296
REMARK  123  A    between atoms: _296  and  _297
REMARK  124  A    between atoms: _299  and  _301
REMARK  125  A    between atoms: _301  and  _302
REMARK  126  A    between atoms: _301  and  _304
REMARK  127  A    between atoms: _304  and  _305
REMARK  128  A    between atoms: _305  and  _306
REMARK  129  A    between atoms: _309  and  _311
REMARK  130  A    between atoms: _311  and  _312
REMARK  131  A    between atoms: _311  and  _314
REMARK  132  A    between atoms: _314  and  _315
REMARK  133  A    between atoms: _318  and  _320
REMARK  134  A    between atoms: _320  and  _321
REMARK  135  A    between atoms: _320  and  _323
REMARK  136  A    between atoms: _323  and  _324
REMARK  137  A    between atoms: _330  and  _332
REMARK  138  A    between atoms: _332  and  _333
REMARK  139  A    between atoms: _332  and  _335
REMARK  140  A    between atoms: _335  and  _336
REMARK  141  A    between atoms: _339  and  _341
REMARK  142  A    between atoms: _341  and  _342
REMARK  143  A    between atoms: _341  and  _344
REMARK  144  A    between atoms: _344  and  _345
REMARK  145  A    between atoms: _345  and  _346
REMARK  146  A    between atoms: _346  and  _347
REMARK  147  A    between atoms: _347  and  _348
REMARK  148  A    between atoms: _352  and  _354
REMARK  149  A    between atoms: _354  and  _355
REMARK  150  A    between atoms: _358  and  _360
REMARK  151  A    between atoms: _360  and  _361
REMARK  152  A    between atoms: _360  and  _363
REMARK  153  A    between atoms: _363  and  _364
REMARK  154  A    between atoms: _364  and  _365
REMARK  155  A    between atoms: _368  and  _370
REMARK  156  A    between atoms: _370  and  _371
REMARK  157  A    between atoms: _370  and  _373
REMARK  158  A    between atoms: _373  and  _374
REMARK  159  A    between atoms: _374  and  _375
REMARK  160  A    between atoms: _375  and  _376
REMARK  161  A    between atoms: _376  and  _377
REMARK  162  A    between atoms: _381  and  _383
REMARK  163  A    between atoms: _383  and  _384
REMARK  164  A    between atoms: _387  and  _389
REMARK  165  A    between atoms: _389  and  _390
REMARK  166  A    between atoms: _389  and  _392
REMARK  167  A    between atoms: _392  and  _393
REMARK  168  A    between atoms: _393  and  _394
REMARK  169  A    between atoms: _394  and  _395
REMARK  170  A    between atoms: _395  and  _396
REMARK  171  A    between atoms: _400  and  _402
REMARK  172  A    between atoms: _402  and  _403
REMARK  173  A    between atoms: _402  and  _405
REMARK  174  A    between atoms: _405  and  _406
REMARK  175  A    between atoms: _409  and  _411
REMARK  176  A    between atoms: _411  and  _412
REMARK  177  A    between atoms: _411  and  _414
REMARK  178  A    between atoms: _414  and  _415
REMARK  179  A    between atoms: _415  and  _416
REMARK  180  A    between atoms: _419  and  _421
REMARK  181  A    between atoms: _421  and  _422
REMARK  182  A    between atoms: _421  and  _424
REMARK  183  A    between atoms: _424  and  _425
REMARK  184  A    between atoms: _428  and  _430
REMARK  185  A    between atoms: _430  and  _431
REMARK  186  A    between atoms: _430  and  _433
REMARK  187  A    between atoms: _433  and  _434
REMARK  188  A    between atoms: _436  and  _438
REMARK  189  A    between atoms: _438  and  _439
REMARK  190  A    between atoms: _438  and  _441
REMARK  191  A    between atoms: _441  and  _442
REMARK  192  A    between atoms: _444  and  _446
REMARK  193  A    between atoms: _446  and  _447
REMARK  194  A    between atoms: _450  and  _452
REMARK  195  A    between atoms: _452  and  _453
REMARK  196  A    between atoms: _452  and  _455
REMARK  197  A    between atoms: _455  and  _456
REMARK  198  A    between atoms: _459  and  _461
REMARK  199  A    between atoms: _461  and  _462
REMARK  200  A    between atoms: _461  and  _464
REMARK  201  A    between atoms: _467  and  _469
REMARK  202  A    between atoms: _469  and  _470
REMARK  203  A    between atoms: _472  and  _474
REMARK  204  A    between atoms: _474  and  _475
REMARK  205  A    between atoms: _477  and  _479
REMARK  206  A    between atoms: _479  and  _480
REMARK  207  A    between atoms: _479  and  _482
REMARK  208  A    between atoms: _482  and  _483
REMARK  209  A    between atoms: _483  and  _484
REMARK  210  A    between atoms: _489  and  _491
REMARK  211  A    between atoms: _491  and  _492
REMARK  212  A    between atoms: _491  and  _494
REMARK  213  A    between atoms: _494  and  _495
REMARK  214  A    between atoms: _498  and  _500
REMARK  215  A    between atoms: _500  and  _501
REMARK  216  A    between atoms: _500  and  _503
REMARK  217  A    between atoms: _503  and  _504
REMARK  218  A    between atoms: _504  and  _505
REMARK  219  A    between atoms: _505  and  _506
REMARK  220  A    between atoms: _515  and  _517
REMARK  221  A    between atoms: _517  and  _518
REMARK  222  A    between atoms: _517  and  _520
REMARK  223  A    between atoms: _520  and  _521
REMARK  224  A    between atoms: _521  and  _522
REMARK  225  A    between atoms: _525  and  _526
REMARK  226  A    between atoms: _531  and  _533
REMARK  227  A    between atoms: _533  and  _534
REMARK  228  A    between atoms: _533  and  _536
REMARK  229  A    between atoms: _539  and  _541
REMARK  230  A    between atoms: _541  and  _542
REMARK  231  A    between atoms: _541  and  _544
REMARK  232  A    between atoms: _544  and  _545
REMARK  233  A    between atoms: _545  and  _546
REMARK  234  A    between atoms: _552  and  _553
REMARK  235  A    between atoms: _558  and  _560
REMARK  236  A    between atoms: _560  and  _561
REMARK  237  A    between atoms: _560  and  _563
REMARK  238  A    between atoms: _563  and  _564
REMARK  239  A    between atoms: _567  and  _569
REMARK  240  A    between atoms: _569  and  _570
REMARK  241  A    between atoms: _569  and  _572
REMARK  242  A    between atoms: _572  and  _573
REMARK  243  A    between atoms: _573  and  _574
REMARK  244  A    between atoms: _577  and  _579
REMARK  245  A    between atoms: _579  and  _580
REMARK  246  A    between atoms: _579  and  _582
REMARK  247  A    between atoms: _585  and  _587
REMARK  248  A    between atoms: _587  and  _588
REMARK  249  A    between atoms: _591  and  _593
REMARK  250  A    between atoms: _593  and  _594
REMARK  251  A    between atoms: _593  and  _596
REMARK  252  A    between atoms: _596  and  _597
REMARK  253  A    between atoms: _597  and  _598
REMARK  254  A    between atoms: _601  and  _603
REMARK  255  A    between atoms: _603  and  _604
REMARK  256  A    between atoms: _606  and  _608
REMARK  257  A    between atoms: _608  and  _609
REMARK  258  A    between atoms: _608  and  _611
REMARK  259  A    between atoms: _611  and  _612
REMARK                            x       y       z     vdW  Elec       q    Type
REMARK                         _______ _______ _______ _____ _____    ______ ____
ROOT
ATOM      1  O   HOH     1      19.630  82.775  24.512  0.00  0.00    +0.000 OA
ENDROOT
TORSDOF 0
REMARK  Name = ../refined-set-2016/4jne/4jne_pocket.pdb
REMARK  259 active torsions:
REMARK  status: ('A' for Active; 'I' for Inactive)
REMARK    1  A    between atoms: _1  and  _3
REMARK    2  A    between atoms: _3  and  _4
REMARK    3  A    between atoms: _3  and  _6
REMARK    4  A    between atoms: _6  and  _7
REMARK    5  A    between atoms: _10  and  _12
REMARK    6  A    between atoms: _12  and  _13
REMARK    7  A    between atoms: _12  and  _15
REMARK    8  A    between atoms: _15  and  _16
REMARK    9  A    between atoms: _19  and  _21
REMARK   10  A    between atoms: _21  and  _22
REMARK   11  A    between atoms: _24  and  _26
REMARK   12  A    between atoms: _26  and  _27
REMARK   13  A    between atoms: _26  and  _29
REMARK   14  A    between atoms: _29  and  _30
REMARK   15  A    between atoms: _33  and  _35
REMARK   16  A    between atoms: _35  and  _36
REMARK   17  A    between atoms: _35  and  _38
REMARK   18  A    between atoms: _38  and  _39
REMARK   19  A    between atoms: _42  and  _44
REMARK   20  A    between atoms: _44  and  _45
REMARK   21  A    between atoms: _44  and  _47
REMARK   22  A    between atoms: _47  and  _48
REMARK   23  A    between atoms: _53  and  _55
REMARK   24  A    between atoms: _55  and  _56
REMARK   25  A    between atoms: _55  and  _58
REMARK   26  A    between atoms: _58  and  _59
REMARK   27  A    between atoms: _61  and  _63
REMARK   28  A    between atoms: _63  and  _64
REMARK   29  A    between atoms: _63  and  _66
REMARK   30  A    between atoms: _68  and  _70
REMARK   31  A    between atoms: _70  and  _71
REMARK   32  A    between atoms: _70  and  _73
REMARK   33  A    between atoms: _73  and  _74
REMARK   34  A    between atoms: _77  and  _79
REMARK   35  A    between atoms: _79  and  _80
REMARK   36  A    between atoms: _79  and  _82
REMARK   37  A    between atoms: _82  and  _83
REMARK   38  A    between atoms: _87  and  _88
REMARK   39  A    between atoms: _93  and  _95
REMARK   40  A    between atoms: _95  and  _96
REMARK   41  A    between atoms: _95  and  _98
REMARK   42  A    between atoms: _98  and  _99
REMARK   43  A    between atoms: _101  and  _103
REMARK   44  A    between atoms: _103  and  _104
REMARK   45  A    between atoms: _103  and  _106
REMARK   46  A    between atoms: _106  and  _107
REMARK   47  A    between atoms: _107  and  _108
REMARK   48  A    between atoms: _108  and  _109
REMARK   49  A    between atoms: _109  and  _110
REMARK   50  A    between atoms: _114  and  _116
REMARK   51  A    between atoms: _116  and  _117
REMARK   52  A    between atoms: _120  and  _122
REMARK   53  A    between atoms: _122  and  _123
REMARK   54  A    between atoms: _122  and  _125
REMARK   55  A    between atoms: _125  and  _126
REMARK   56  A    between atoms: _126  and  _127
REMARK   57  A    between atoms: _127  and  _128
REMARK   58  A    between atoms: _128  and  _129
REMARK   59  A    between atoms: _133  and  _135
REMARK   60  A    between atoms: _135  and  _136
REMARK   61  A    between atoms: _135  and  _138
REMARK   62  A    between atoms: _138  and  _139
REMARK   63  A    between atoms: _139  and  _140
REMARK   64  A    between atoms: _140  and  _141
REMARK   65  A    between atoms: _150  and  _152
REMARK   66  A    between atoms: _152  and  _153
REMARK   67  A    between atoms: _152  and  _155
REMARK   68  A    between atoms: _155  and  _156
REMARK   69  A    between atoms: _159  and  _161
REMARK   70  A    between atoms: _161  and  _162
REMARK   71  A    between atoms: _161  and  _164
REMARK   72  A    between atoms: _168  and  _169
REMARK   73  A    between atoms: _174  and  _176
REMARK   74  A    between atoms: _176  and  _177
REMARK   75  A    between atoms: _180  and  _182
REMARK   76  A    between atoms: _182  and  _183
REMARK   77  A    between atoms: _182  and  _185
REMARK   78  A    between atoms: _185  and  _186
REMARK   79  A    between atoms: _192  and  _194
REMARK   80  A    between atoms: _194  and  _195
REMARK   81  A    between atoms: _194  and  _197
REMARK   82  A    between atoms: _197  and  _198
REMARK   83  A    between atoms: _198  and  _199
REMARK   84  A    between atoms: _202  and  _204
REMARK   85  A    between atoms: _204  and  _205
REMARK   86  A    between atoms: _204  and  _207
REMARK   87  A    between atoms: _207  and  _208
REMARK   88  A    between atoms: _211  and  _213
REMARK   89  A    between atoms: _213  and  _214
REMARK   90  A    between atoms: _213  and  _216
REMARK   91  A    between atoms: _216  and  _217
REMARK   92  A    between atoms: _220  and  _222
REMARK   93  A    between atoms: _222  and  _223
REMARK   94  A    between atoms: _225  and  _227
REMARK   95  A    between atoms: _227  and  _228
REMARK   96  A    between atoms: _230  and  _232
REMARK   97  A    between atoms: _232  and  _233
REMARK   98  A    between atoms: _235  and  _237
REMARK   99  A    between atoms: _237  and  _238
REMARK  100  A    between atoms: _241  and  _243
REMARK  101  A    between atoms: _243  and  _244
REMARK  102  A    between atoms: _243  and  _246
REMARK  103  A    between atoms: _246  and  _247
REMARK  104  A    between atoms: _253  and  _255
REMARK  105  A    between atoms: _255  and  _256
REMARK  106  A    between atoms: _255  and  _258
REMARK  107  A    between atoms: _258  and  _259
REMARK  108  A    between atoms: _262  and  _264
REMARK  109  A    between atoms: _264  and  _265
REMARK  110  A    between atoms: _264  and  _267
REMARK  111  A    between atoms: _267  and  _268
REMARK  112  A    between atoms: _271  and  _273
REMARK  113  A    between atoms: _273  and  _274
REMARK  114  A    between atoms: _273  and  _276
REMARK  115  A    between atoms: _276  and  _277
REMARK  116  A    between atoms: _280  and  _282
REMARK  117  A    between atoms: _282  and  _283
REMARK  118  A    between atoms: _282  and  _285
REMARK  119  A    between atoms: _285  and  _286
REMARK  120  A    between atoms: _289  and  _291
REMARK  121  A    between atoms: _291  and  _292
REMARK  122  A    between atoms: _294  and  _296
REMARK  123  A    between atoms: _296  and  _297
REMARK  124  A    between atoms: _299  and  _301
REMARK  125  A    between atoms: _301  and  _302
REMARK  126  A    between atoms: _301  and  _304
REMARK  127  A    between atoms: _304  and  _305
REMARK  128  A    between atoms: _305  and  _306
REMARK  129  A    between atoms: _309  and  _311
REMARK  130  A    between atoms: _311  and  _312
REMARK  131  A    between atoms: _311  and  _314
REMARK  132  A    between atoms: _314  and  _315
REMARK  133  A    between atoms: _318  and  _320
REMARK  134  A    between atoms: _320  and  _321
REMARK  135  A    between atoms: _320  and  _323
REMARK  136  A    between atoms: _323  and  _324
REMARK  137  A    between atoms: _330  and  _332
REMARK  138  A    between atoms: _332  and  _333
REMARK  139  A    between atoms: _332  and  _335
REMARK  140  A    between atoms: _335  and  _336
REMARK  141  A    between atoms: _339  and  _341
REMARK  142  A    between atoms: _341  and  _342
REMARK  143  A    between atoms: _341  and  _344
REMARK  144  A    between atoms: _344  and  _345
REMARK  145  A    between atoms: _345  and  _346
REMARK  146  A    between atoms: _346  and  _347
REMARK  147  A    between atoms: _347  and  _348
REMARK  148  A    between atoms: _352  and  _354
REMARK  149  A    between atoms: _354  and  _355
REMARK  150  A    between atoms: _358  and  _360
REMARK  151  A    between atoms: _360  and  _361
REMARK  152  A    between atoms: _360  and  _363
REMARK  153  A    between atoms: _363  and  _364
REMARK  154  A    between atoms: _364  and  _365
REMARK  155  A    between atoms: _368  and  _370
REMARK  156  A    between atoms: _370  and  _371
REMARK  157  A    between atoms: _370  and  _373
REMARK  158  A    between atoms: _373  and  _374
REMARK  159  A    between atoms: _374  and  _375
REMARK  160  A    between atoms: _375  and  _376
REMARK  161  A    between atoms: _376  and  _377
REMARK  162  A    between atoms: _381  and  _383
REMARK  163  A    between atoms: _383  and  _384
REMARK  164  A    between atoms: _387  and  _389
REMARK  165  A    between atoms: _389  and  _390
REMARK  166  A    between atoms: _389  and  _392
REMARK  167  A    between atoms: _392  and  _393
REMARK  168  A    between atoms: _393  and  _394
REMARK  169  A    between atoms: _394  and  _395
REMARK  170  A    between atoms: _395  and  _396
REMARK  171  A    between atoms: _400  and  _402
REMARK  172  A    between atoms: _402  and  _403
REMARK  173  A    between atoms: _402  and  _405
REMARK  174  A    between atoms: _405  and  _406
REMARK  175  A    between atoms: _409  and  _411
REMARK  176  A    between atoms: _411  and  _412
REMARK  177  A    between atoms: _411  and  _414
REMARK  178  A    between atoms: _414  and  _415
REMARK  179  A    between atoms: _415  and  _416
REMARK  180  A    between atoms: _419  and  _421
REMARK  181  A    between atoms: _421  and  _422
REMARK  182  A    between atoms: _421  and  _424
REMARK  183  A    between atoms: _424  and  _425
REMARK  184  A    between atoms: _428  and  _430
REMARK  185  A    between atoms: _430  and  _431
REMARK  186  A    between atoms: _430  and  _433
REMARK  187  A    between atoms: _433  and  _434
REMARK  188  A    between atoms: _436  and  _438
REMARK  189  A    between atoms: _438  and  _439
REMARK  190  A    between atoms: _438  and  _441
REMARK  191  A    between atoms: _441  and  _442
REMARK  192  A    between atoms: _444  and  _446
REMARK  193  A    between atoms: _446  and  _447
REMARK  194  A    between atoms: _450  and  _452
REMARK  195  A    between atoms: _452  and  _453
REMARK  196  A    between atoms: _452  and  _455
REMARK  197  A    between atoms: _455  and  _456
REMARK  198  A    between atoms: _459  and  _461
REMARK  199  A    between atoms: _461  and  _462
REMARK  200  A    between atoms: _461  and  _464
REMARK  201  A    between atoms: _467  and  _469
REMARK  202  A    between atoms: _469  and  _470
REMARK  203  A    between atoms: _472  and  _474
REMARK  204  A    between atoms: _474  and  _475
REMARK  205  A    between atoms: _477  and  _479
REMARK  206  A    between atoms: _479  and  _480
REMARK  207  A    between atoms: _479  and  _482
REMARK  208  A    between atoms: _482  and  _483
REMARK  209  A    between atoms: _483  and  _484
REMARK  210  A    between atoms: _489  and  _491
REMARK  211  A    between atoms: _491  and  _492
REMARK  212  A    between atoms: _491  and  _494
REMARK  213  A    between atoms: _494  and  _495
REMARK  214  A    between atoms: _498  and  _500
REMARK  215  A    between atoms: _500  and  _501
REMARK  216  A    between atoms: _500  and  _503
REMARK  217  A    between atoms: _503  and  _504
REMARK  218  A    between atoms: _504  and  _505
REMARK  219  A    between atoms: _505  and  _506
REMARK  220  A    between atoms: _515  and  _517
REMARK  221  A    between atoms: _517  and  _518
REMARK  222  A    between atoms: _517  and  _520
REMARK  223  A    between atoms: _520  and  _521
REMARK  224  A    between atoms: _521  and  _522
REMARK  225  A    between atoms: _525  and  _526
REMARK  226  A    between atoms: _531  and  _533
REMARK  227  A    between atoms: _533  and  _534
REMARK  228  A    between atoms: _533  and  _536
REMARK  229  A    between atoms: _539  and  _541
REMARK  230  A    between atoms: _541  and  _542
REMARK  231  A    between atoms: _541  and  _544
REMARK  232  A    between atoms: _544  and  _545
REMARK  233  A    between atoms: _545  and  _546
REMARK  234  A    between atoms: _552  and  _553
REMARK  235  A    between atoms: _558  and  _560
REMARK  236  A    between atoms: _560  and  _561
REMARK  237  A    between atoms: _560  and  _563
REMARK  238  A    between atoms: _563  and  _564
REMARK  239  A    between atoms: _567  and  _569
REMARK  240  A    between atoms: _569  and  _570
REMARK  241  A    between atoms: _569  and  _572
REMARK  242  A    between atoms: _572  and  _573
REMARK  243  A    between atoms: _573  and  _574
REMARK  244  A    between atoms: _577  and  _579
REMARK  245  A    between atoms: _579  and  _580
REMARK  246  A    between atoms: _579  and  _582
REMARK  247  A    between atoms: _585  and  _587
REMARK  248  A    between atoms: _587  and  _588
REMARK  249  A    between atoms: _591  and  _593
REMARK  250  A    between atoms: _593  and  _594
REMARK  251  A    between atoms: _593  and  _596
REMARK  252  A    between atoms: _596  and  _597
REMARK  253  A    between atoms: _597  and  _598
REMARK  254  A    between atoms: _601  and  _603
REMARK  255  A    between atoms: _603  and  _604
REMARK  256  A    between atoms: _606  and  _608
REMARK  257  A    between atoms: _608  and  _609
REMARK  258  A    between atoms: _608  and  _611
REMARK  259  A    between atoms: _611  and  _612
REMARK                            x       y       z     vdW  Elec       q    Type
REMARK                         _______ _______ _______ _____ _____    ______ ____
ROOT
ATOM      1  O   HOH     1      27.793  73.707  36.828  0.00  0.00    +0.000 OA
ENDROOT
TORSDOF 0
REMARK  Name = ../refined-set-2016/4jne/4jne_pocket.pdb
REMARK  259 active torsions:
REMARK  status: ('A' for Active; 'I' for Inactive)
REMARK    1  A    between atoms: _1  and  _3
REMARK    2  A    between atoms: _3  and  _4
REMARK    3  A    between atoms: _3  and  _6
REMARK    4  A    between atoms: _6  and  _7
REMARK    5  A    between atoms: _10  and  _12
REMARK    6  A    between atoms: _12  and  _13
REMARK    7  A    between atoms: _12  and  _15
REMARK    8  A    between atoms: _15  and  _16
REMARK    9  A    between atoms: _19  and  _21
REMARK   10  A    between atoms: _21  and  _22
REMARK   11  A    between atoms: _24  and  _26
REMARK   12  A    between atoms: _26  and  _27
REMARK   13  A    between atoms: _26  and  _29
REMARK   14  A    between atoms: _29  and  _30
REMARK   15  A    between atoms: _33  and  _35
REMARK   16  A    between atoms: _35  and  _36
REMARK   17  A    between atoms: _35  and  _38
REMARK   18  A    between atoms: _38  and  _39
REMARK   19  A    between atoms: _42  and  _44
REMARK   20  A    between atoms: _44  and  _45
REMARK   21  A    between atoms: _44  and  _47
REMARK   22  A    between atoms: _47  and  _48
REMARK   23  A    between atoms: _53  and  _55
REMARK   24  A    between atoms: _55  and  _56
REMARK   25  A    between atoms: _55  and  _58
REMARK   26  A    between atoms: _58  and  _59
REMARK   27  A    between atoms: _61  and  _63
REMARK   28  A    between atoms: _63  and  _64
REMARK   29  A    between atoms: _63  and  _66
REMARK   30  A    between atoms: _68  and  _70
REMARK   31  A    between atoms: _70  and  _71
REMARK   32  A    between atoms: _70  and  _73
REMARK   33  A    between atoms: _73  and  _74
REMARK   34  A    between atoms: _77  and  _79
REMARK   35  A    between atoms: _79  and  _80
REMARK   36  A    between atoms: _79  and  _82
REMARK   37  A    between atoms: _82  and  _83
REMARK   38  A    between atoms: _87  and  _88
REMARK   39  A    between atoms: _93  and  _95
REMARK   40  A    between atoms: _95  and  _96
REMARK   41  A    between atoms: _95  and  _98
REMARK   42  A    between atoms: _98  and  _99
REMARK   43  A    between atoms: _101  and  _103
REMARK   44  A    between atoms: _103  and  _104
REMARK   45  A    between atoms: _103  and  _106
REMARK   46  A    between atoms: _106  and  _107
REMARK   47  A    between atoms: _107  and  _108
REMARK   48  A    between atoms: _108  and  _109
REMARK   49  A    between atoms: _109  and  _110
REMARK   50  A    between atoms: _114  and  _116
REMARK   51  A    between atoms: _116  and  _117
REMARK   52  A    between atoms: _120  and  _122
REMARK   53  A    between atoms: _122  and  _123
REMARK   54  A    between atoms: _122  and  _125
REMARK   55  A    between atoms: _125  and  _126
REMARK   56  A    between atoms: _126  and  _127
REMARK   57  A    between atoms: _127  and  _128
REMARK   58  A    between atoms: _128  and  _129
REMARK   59  A    between atoms: _133  and  _135
REMARK   60  A    between atoms: _135  and  _136
REMARK   61  A    between atoms: _135  and  _138
REMARK   62  A    between atoms: _138  and  _139
REMARK   63  A    between atoms: _139  and  _140
REMARK   64  A    between atoms: _140  and  _141
REMARK   65  A    between atoms: _150  and  _152
REMARK   66  A    between atoms: _152  and  _153
REMARK   67  A    between atoms: _152  and  _155
REMARK   68  A    between atoms: _155  and  _156
REMARK   69  A    between atoms: _159  and  _161
REMARK   70  A    between atoms: _161  and  _162
REMARK   71  A    between atoms: _161  and  _164
REMARK   72  A    between atoms: _168  and  _169
REMARK   73  A    between atoms: _174  and  _176
REMARK   74  A    between atoms: _176  and  _177
REMARK   75  A    between atoms: _180  and  _182
REMARK   76  A    between atoms: _182  and  _183
REMARK   77  A    between atoms: _182  and  _185
REMARK   78  A    between atoms: _185  and  _186
REMARK   79  A    between atoms: _192  and  _194
REMARK   80  A    between atoms: _194  and  _195
REMARK   81  A    between atoms: _194  and  _197
REMARK   82  A    between atoms: _197  and  _198
REMARK   83  A    between atoms: _198  and  _199
REMARK   84  A    between atoms: _202  and  _204
REMARK   85  A    between atoms: _204  and  _205
REMARK   86  A    between atoms: _204  and  _207
REMARK   87  A    between atoms: _207  and  _208
REMARK   88  A    between atoms: _211  and  _213
REMARK   89  A    between atoms: _213  and  _214
REMARK   90  A    between atoms: _213  and  _216
REMARK   91  A    between atoms: _216  and  _217
REMARK   92  A    between atoms: _220  and  _222
REMARK   93  A    between atoms: _222  and  _223
REMARK   94  A    between atoms: _225  and  _227
REMARK   95  A    between atoms: _227  and  _228
REMARK   96  A    between atoms: _230  and  _232
REMARK   97  A    between atoms: _232  and  _233
REMARK   98  A    between atoms: _235  and  _237
REMARK   99  A    between atoms: _237  and  _238
REMARK  100  A    between atoms: _241  and  _243
REMARK  101  A    between atoms: _243  and  _244
REMARK  102  A    between atoms: _243  and  _246
REMARK  103  A    between atoms: _246  and  _247
REMARK  104  A    between atoms: _253  and  _255
REMARK  105  A    between atoms: _255  and  _256
REMARK  106  A    between atoms: _255  and  _258
REMARK  107  A    between atoms: _258  and  _259
REMARK  108  A    between atoms: _262  and  _264
REMARK  109  A    between atoms: _264  and  _265
REMARK  110  A    between atoms: _264  and  _267
REMARK  111  A    between atoms: _267  and  _268
REMARK  112  A    between atoms: _271  and  _273
REMARK  113  A    between atoms: _273  and  _274
REMARK  114  A    between atoms: _273  and  _276
REMARK  115  A    between atoms: _276  and  _277
REMARK  116  A    between atoms: _280  and  _282
REMARK  117  A    between atoms: _282  and  _283
REMARK  118  A    between atoms: _282  and  _285
REMARK  119  A    between atoms: _285  and  _286
REMARK  120  A    between atoms: _289  and  _291
REMARK  121  A    between atoms: _291  and  _292
REMARK  122  A    between atoms: _294  and  _296
REMARK  123  A    between atoms: _296  and  _297
REMARK  124  A    between atoms: _299  and  _301
REMARK  125  A    between atoms: _301  and  _302
REMARK  126  A    between atoms: _301  and  _304
REMARK  127  A    between atoms: _304  and  _305
REMARK  128  A    between atoms: _305  and  _306
REMARK  129  A    between atoms: _309  and  _311
REMARK  130  A    between atoms: _311  and  _312
REMARK  131  A    between atoms: _311  and  _314
REMARK  132  A    between atoms: _314  and  _315
REMARK  133  A    between atoms: _318  and  _320
REMARK  134  A    between atoms: _320  and  _321
REMARK  135  A    between atoms: _320  and  _323
REMARK  136  A    between atoms: _323  and  _324
REMARK  137  A    between atoms: _330  and  _332
REMARK  138  A    between atoms: _332  and  _333
REMARK  139  A    between atoms: _332  and  _335
REMARK  140  A    between atoms: _335  and  _336
REMARK  141  A    between atoms: _339  and  _341
REMARK  142  A    between atoms: _341  and  _342
REMARK  143  A    between atoms: _341  and  _344
REMARK  144  A    between atoms: _344  and  _345
REMARK  145  A    between atoms: _345  and  _346
REMARK  146  A    between atoms: _346  and  _347
REMARK  147  A    between atoms: _347  and  _348
REMARK  148  A    between atoms: _352  and  _354
REMARK  149  A    between atoms: _354  and  _355
REMARK  150  A    between atoms: _358  and  _360
REMARK  151  A    between atoms: _360  and  _361
REMARK  152  A    between atoms: _360  and  _363
REMARK  153  A    between atoms: _363  and  _364
REMARK  154  A    between atoms: _364  and  _365
REMARK  155  A    between atoms: _368  and  _370
REMARK  156  A    between atoms: _370  and  _371
REMARK  157  A    between atoms: _370  and  _373
REMARK  158  A    between atoms: _373  and  _374
REMARK  159  A    between atoms: _374  and  _375
REMARK  160  A    between atoms: _375  and  _376
REMARK  161  A    between atoms: _376  and  _377
REMARK  162  A    between atoms: _381  and  _383
REMARK  163  A    between atoms: _383  and  _384
REMARK  164  A    between atoms: _387  and  _389
REMARK  165  A    between atoms: _389  and  _390
REMARK  166  A    between atoms: _389  and  _392
REMARK  167  A    between atoms: _392  and  _393
REMARK  168  A    between atoms: _393  and  _394
REMARK  169  A    between atoms: _394  and  _395
REMARK  170  A    between atoms: _395  and  _396
REMARK  171  A    between atoms: _400  and  _402
REMARK  172  A    between atoms: _402  and  _403
REMARK  173  A    between atoms: _402  and  _405
REMARK  174  A    between atoms: _405  and  _406
REMARK  175  A    between atoms: _409  and  _411
REMARK  176  A    between atoms: _411  and  _412
REMARK  177  A    between atoms: _411  and  _414
REMARK  178  A    between atoms: _414  and  _415
REMARK  179  A    between atoms: _415  and  _416
REMARK  180  A    between atoms: _419  and  _421
REMARK  181  A    between atoms: _421  and  _422
REMARK  182  A    between atoms: _421  and  _424
REMARK  183  A    between atoms: _424  and  _425
REMARK  184  A    between atoms: _428  and  _430
REMARK  185  A    between atoms: _430  and  _431
REMARK  186  A    between atoms: _430  and  _433
REMARK  187  A    between atoms: _433  and  _434
REMARK  188  A    between atoms: _436  and  _438
REMARK  189  A    between atoms: _438  and  _439
REMARK  190  A    between atoms: _438  and  _441
REMARK  191  A    between atoms: _441  and  _442
REMARK  192  A    between atoms: _444  and  _446
REMARK  193  A    between atoms: _446  and  _447
REMARK  194  A    between atoms: _450  and  _452
REMARK  195  A    between atoms: _452  and  _453
REMARK  196  A    between atoms: _452  and  _455
REMARK  197  A    between atoms: _455  and  _456
REMARK  198  A    between atoms: _459  and  _461
REMARK  199  A    between atoms: _461  and  _462
REMARK  200  A    between atoms: _461  and  _464
REMARK  201  A    between atoms: _467  and  _469
REMARK  202  A    between atoms: _469  and  _470
REMARK  203  A    between atoms: _472  and  _474
REMARK  204  A    between atoms: _474  and  _475
REMARK  205  A    between atoms: _477  and  _479
REMARK  206  A    between atoms: _479  and  _480
REMARK  207  A    between atoms: _479  and  _482
REMARK  208  A    between atoms: _482  and  _483
REMARK  209  A    between atoms: _483  and  _484
REMARK  210  A    between atoms: _489  and  _491
REMARK  211  A    between atoms: _491  and  _492
REMARK  212  A    between atoms: _491  and  _494
REMARK  213  A    between atoms: _494  and  _495
REMARK  214  A    between atoms: _498  and  _500
REMARK  215  A    between atoms: _500  and  _501
REMARK  216  A    between atoms: _500  and  _503
REMARK  217  A    between atoms: _503  and  _504
REMARK  218  A    between atoms: _504  and  _505
REMARK  219  A    between atoms: _505  and  _506
REMARK  220  A    between atoms: _515  and  _517
REMARK  221  A    between atoms: _517  and  _518
REMARK  222  A    between atoms: _517  and  _520
REMARK  223  A    between atoms: _520  and  _521
REMARK  224  A    between atoms: _521  and  _522
REMARK  225  A    between atoms: _525  and  _526
REMARK  226  A    between atoms: _531  and  _533
REMARK  227  A    between atoms: _533  and  _534
REMARK  228  A    between atoms: _533  and  _536
REMARK  229  A    between atoms: _539  and  _541
REMARK  230  A    between atoms: _541  and  _542
REMARK  231  A    between atoms: _541  and  _544
REMARK  232  A    between atoms: _544  and  _545
REMARK  233  A    between atoms: _545  and  _546
REMARK  234  A    between atoms: _552  and  _553
REMARK  235  A    between atoms: _558  and  _560
REMARK  236  A    between atoms: _560  and  _561
REMARK  237  A    between atoms: _560  and  _563
REMARK  238  A    between atoms: _563  and  _564
REMARK  239  A    between atoms: _567  and  _569
REMARK  240  A    between atoms: _569  and  _570
REMARK  241  A    between atoms: _569  and  _572
REMARK  242  A    between atoms: _572  and  _573
REMARK  243  A    between atoms: _573  and  _574
REMARK  244  A    between atoms: _577  and  _579
REMARK  245  A    between atoms: _579  and  _580
REMARK  246  A    between atoms: _579  and  _582
REMARK  247  A    between atoms: _585  and  _587
REMARK  248  A    between atoms: _587  and  _588
REMARK  249  A    between atoms: _591  and  _593
REMARK  250  A    between atoms: _593  and  _594
REMARK  251  A    between atoms: _593  and  _596
REMARK  252  A    between atoms: _596  and  _597
REMARK  253  A    between atoms: _597  and  _598
REMARK  254  A    between atoms: _601  and  _603
REMARK  255  A    between atoms: _603  and  _604
REMARK  256  A    between atoms: _606  and  _608
REMARK  257  A    between atoms: _608  and  _609
REMARK  258  A    between atoms: _608  and  _611
REMARK  259  A    between atoms: _611  and  _612
REMARK                            x       y       z     vdW  Elec       q    Type
REMARK                         _______ _______ _______ _____ _____    ______ ____
ROOT
ATOM      1  O   HOH     1      25.602  71.259  29.016  0.00  0.00    +0.000 OA
ENDROOT
TORSDOF 0
REMARK  Name = ../refined-set-2016/4jne/4jne_pocket.pdb
REMARK  259 active torsions:
REMARK  status: ('A' for Active; 'I' for Inactive)
REMARK    1  A    between atoms: _1  and  _3
REMARK    2  A    between atoms: _3  and  _4
REMARK    3  A    between atoms: _3  and  _6
REMARK    4  A    between atoms: _6  and  _7
REMARK    5  A    between atoms: _10  and  _12
REMARK    6  A    between atoms: _12  and  _13
REMARK    7  A    between atoms: _12  and  _15
REMARK    8  A    between atoms: _15  and  _16
REMARK    9  A    between atoms: _19  and  _21
REMARK   10  A    between atoms: _21  and  _22
REMARK   11  A    between atoms: _24  and  _26
REMARK   12  A    between atoms: _26  and  _27
REMARK   13  A    between atoms: _26  and  _29
REMARK   14  A    between atoms: _29  and  _30
REMARK   15  A    between atoms: _33  and  _35
REMARK   16  A    between atoms: _35  and  _36
REMARK   17  A    between atoms: _35  and  _38
REMARK   18  A    between atoms: _38  and  _39
REMARK   19  A    between atoms: _42  and  _44
REMARK   20  A    between atoms: _44  and  _45
REMARK   21  A    between atoms: _44  and  _47
REMARK   22  A    between atoms: _47  and  _48
REMARK   23  A    between atoms: _53  and  _55
REMARK   24  A    between atoms: _55  and  _56
REMARK   25  A    between atoms: _55  and  _58
REMARK   26  A    between atoms: _58  and  _59
REMARK   27  A    between atoms: _61  and  _63
REMARK   28  A    between atoms: _63  and  _64
REMARK   29  A    between atoms: _63  and  _66
REMARK   30  A    between atoms: _68  and  _70
REMARK   31  A    between atoms: _70  and  _71
REMARK   32  A    between atoms: _70  and  _73
REMARK   33  A    between atoms: _73  and  _74
REMARK   34  A    between atoms: _77  and  _79
REMARK   35  A    between atoms: _79  and  _80
REMARK   36  A    between atoms: _79  and  _82
REMARK   37  A    between atoms: _82  and  _83
REMARK   38  A    between atoms: _87  and  _88
REMARK   39  A    between atoms: _93  and  _95
REMARK   40  A    between atoms: _95  and  _96
REMARK   41  A    between atoms: _95  and  _98
REMARK   42  A    between atoms: _98  and  _99
REMARK   43  A    between atoms: _101  and  _103
REMARK   44  A    between atoms: _103  and  _104
REMARK   45  A    between atoms: _103  and  _106
REMARK   46  A    between atoms: _106  and  _107
REMARK   47  A    between atoms: _107  and  _108
REMARK   48  A    between atoms: _108  and  _109
REMARK   49  A    between atoms: _109  and  _110
REMARK   50  A    between atoms: _114  and  _116
REMARK   51  A    between atoms: _116  and  _117
REMARK   52  A    between atoms: _120  and  _122
REMARK   53  A    between atoms: _122  and  _123
REMARK   54  A    between atoms: _122  and  _125
REMARK   55  A    between atoms: _125  and  _126
REMARK   56  A    between atoms: _126  and  _127
REMARK   57  A    between atoms: _127  and  _128
REMARK   58  A    between atoms: _128  and  _129
REMARK   59  A    between atoms: _133  and  _135
REMARK   60  A    between atoms: _135  and  _136
REMARK   61  A    between atoms: _135  and  _138
REMARK   62  A    between atoms: _138  and  _139
REMARK   63  A    between atoms: _139  and  _140
REMARK   64  A    between atoms: _140  and  _141
REMARK   65  A    between atoms: _150  and  _152
REMARK   66  A    between atoms: _152  and  _153
REMARK   67  A    between atoms: _152  and  _155
REMARK   68  A    between atoms: _155  and  _156
REMARK   69  A    between atoms: _159  and  _161
REMARK   70  A    between atoms: _161  and  _162
REMARK   71  A    between atoms: _161  and  _164
REMARK   72  A    between atoms: _168  and  _169
REMARK   73  A    between atoms: _174  and  _176
REMARK   74  A    between atoms: _176  and  _177
REMARK   75  A    between atoms: _180  and  _182
REMARK   76  A    between atoms: _182  and  _183
REMARK   77  A    between atoms: _182  and  _185
REMARK   78  A    between atoms: _185  and  _186
REMARK   79  A    between atoms: _192  and  _194
REMARK   80  A    between atoms: _194  and  _195
REMARK   81  A    between atoms: _194  and  _197
REMARK   82  A    between atoms: _197  and  _198
REMARK   83  A    between atoms: _198  and  _199
REMARK   84  A    between atoms: _202  and  _204
REMARK   85  A    between atoms: _204  and  _205
REMARK   86  A    between atoms: _204  and  _207
REMARK   87  A    between atoms: _207  and  _208
REMARK   88  A    between atoms: _211  and  _213
REMARK   89  A    between atoms: _213  and  _214
REMARK   90  A    between atoms: _213  and  _216
REMARK   91  A    between atoms: _216  and  _217
REMARK   92  A    between atoms: _220  and  _222
REMARK   93  A    between atoms: _222  and  _223
REMARK   94  A    between atoms: _225  and  _227
REMARK   95  A    between atoms: _227  and  _228
REMARK   96  A    between atoms: _230  and  _232
REMARK   97  A    between atoms: _232  and  _233
REMARK   98  A    between atoms: _235  and  _237
REMARK   99  A    between atoms: _237  and  _238
REMARK  100  A    between atoms: _241  and  _243
REMARK  101  A    between atoms: _243  and  _244
REMARK  102  A    between atoms: _243  and  _246
REMARK  103  A    between atoms: _246  and  _247
REMARK  104  A    between atoms: _253  and  _255
REMARK  105  A    between atoms: _255  and  _256
REMARK  106  A    between atoms: _255  and  _258
REMARK  107  A    between atoms: _258  and  _259
REMARK  108  A    between atoms: _262  and  _264
REMARK  109  A    between atoms: _264  and  _265
REMARK  110  A    between atoms: _264  and  _267
REMARK  111  A    between atoms: _267  and  _268
REMARK  112  A    between atoms: _271  and  _273
REMARK  113  A    between atoms: _273  and  _274
REMARK  114  A    between atoms: _273  and  _276
REMARK  115  A    between atoms: _276  and  _277
REMARK  116  A    between atoms: _280  and  _282
REMARK  117  A    between atoms: _282  and  _283
REMARK  118  A    between atoms: _282  and  _285
REMARK  119  A    between atoms: _285  and  _286
REMARK  120  A    between atoms: _289  and  _291
REMARK  121  A    between atoms: _291  and  _292
REMARK  122  A    between atoms: _294  and  _296
REMARK  123  A    between atoms: _296  and  _297
REMARK  124  A    between atoms: _299  and  _301
REMARK  125  A    between atoms: _301  and  _302
REMARK  126  A    between atoms: _301  and  _304
REMARK  127  A    between atoms: _304  and  _305
REMARK  128  A    between atoms: _305  and  _306
REMARK  129  A    between atoms: _309  and  _311
REMARK  130  A    between atoms: _311  and  _312
REMARK  131  A    between atoms: _311  and  _314
REMARK  132  A    between atoms: _314  and  _315
REMARK  133  A    between atoms: _318  and  _320
REMARK  134  A    between atoms: _320  and  _321
REMARK  135  A    between atoms: _320  and  _323
REMARK  136  A    between atoms: _323  and  _324
REMARK  137  A    between atoms: _330  and  _332
REMARK  138  A    between atoms: _332  and  _333
REMARK  139  A    between atoms: _332  and  _335
REMARK  140  A    between atoms: _335  and  _336
REMARK  141  A    between atoms: _339  and  _341
REMARK  142  A    between atoms: _341  and  _342
REMARK  143  A    between atoms: _341  and  _344
REMARK  144  A    between atoms: _344  and  _345
REMARK  145  A    between atoms: _345  and  _346
REMARK  146  A    between atoms: _346  and  _347
REMARK  147  A    between atoms: _347  and  _348
REMARK  148  A    between atoms: _352  and  _354
REMARK  149  A    between atoms: _354  and  _355
REMARK  150  A    between atoms: _358  and  _360
REMARK  151  A    between atoms: _360  and  _361
REMARK  152  A    between atoms: _360  and  _363
REMARK  153  A    between atoms: _363  and  _364
REMARK  154  A    between atoms: _364  and  _365
REMARK  155  A    between atoms: _368  and  _370
REMARK  156  A    between atoms: _370  and  _371
REMARK  157  A    between atoms: _370  and  _373
REMARK  158  A    between atoms: _373  and  _374
REMARK  159  A    between atoms: _374  and  _375
REMARK  160  A    between atoms: _375  and  _376
REMARK  161  A    between atoms: _376  and  _377
REMARK  162  A    between atoms: _381  and  _383
REMARK  163  A    between atoms: _383  and  _384
REMARK  164  A    between atoms: _387  and  _389
REMARK  165  A    between atoms: _389  and  _390
REMARK  166  A    between atoms: _389  and  _392
REMARK  167  A    between atoms: _392  and  _393
REMARK  168  A    between atoms: _393  and  _394
REMARK  169  A    between atoms: _394  and  _395
REMARK  170  A    between atoms: _395  and  _396
REMARK  171  A    between atoms: _400  and  _402
REMARK  172  A    between atoms: _402  and  _403
REMARK  173  A    between atoms: _402  and  _405
REMARK  174  A    between atoms: _405  and  _406
REMARK  175  A    between atoms: _409  and  _411
REMARK  176  A    between atoms: _411  and  _412
REMARK  177  A    between atoms: _411  and  _414
REMARK  178  A    between atoms: _414  and  _415
REMARK  179  A    between atoms: _415  and  _416
REMARK  180  A    between atoms: _419  and  _421
REMARK  181  A    between atoms: _421  and  _422
REMARK  182  A    between atoms: _421  and  _424
REMARK  183  A    between atoms: _424  and  _425
REMARK  184  A    between atoms: _428  and  _430
REMARK  185  A    between atoms: _430  and  _431
REMARK  186  A    between atoms: _430  and  _433
REMARK  187  A    between atoms: _433  and  _434
REMARK  188  A    between atoms: _436  and  _438
REMARK  189  A    between atoms: _438  and  _439
REMARK  190  A    between atoms: _438  and  _441
REMARK  191  A    between atoms: _441  and  _442
REMARK  192  A    between atoms: _444  and  _446
REMARK  193  A    between atoms: _446  and  _447
REMARK  194  A    between atoms: _450  and  _452
REMARK  195  A    between atoms: _452  and  _453
REMARK  196  A    between atoms: _452  and  _455
REMARK  197  A    between atoms: _455  and  _456
REMARK  198  A    between atoms: _459  and  _461
REMARK  199  A    between atoms: _461  and  _462
REMARK  200  A    between atoms: _461  and  _464
REMARK  201  A    between atoms: _467  and  _469
REMARK  202  A    between atoms: _469  and  _470
REMARK  203  A    between atoms: _472  and  _474
REMARK  204  A    between atoms: _474  and  _475
REMARK  205  A    between atoms: _477  and  _479
REMARK  206  A    between atoms: _479  and  _480
REMARK  207  A    between atoms: _479  and  _482
REMARK  208  A    between atoms: _482  and  _483
REMARK  209  A    between atoms: _483  and  _484
REMARK  210  A    between atoms: _489  and  _491
REMARK  211  A    between atoms: _491  and  _492
REMARK  212  A    between atoms: _491  and  _494
REMARK  213  A    between atoms: _494  and  _495
REMARK  214  A    between atoms: _498  and  _500
REMARK  215  A    between atoms: _500  and  _501
REMARK  216  A    between atoms: _500  and  _503
REMARK  217  A    between atoms: _503  and  _504
REMARK  218  A    between atoms: _504  and  _505
REMARK  219  A    between atoms: _505  and  _506
REMARK  220  A    between atoms: _515  and  _517
REMARK  221  A    between atoms: _517  and  _518
REMARK  222  A    between atoms: _517  and  _520
REMARK  223  A    between atoms: _520  and  _521
REMARK  224  A    between atoms: _521  and  _522
REMARK  225  A    between atoms: _525  and  _526
REMARK  226  A    between atoms: _531  and  _533
REMARK  227  A    between atoms: _533  and  _534
REMARK  228  A    between atoms: _533  and  _536
REMARK  229  A    between atoms: _539  and  _541
REMARK  230  A    between atoms: _541  and  _542
REMARK  231  A    between atoms: _541  and  _544
REMARK  232  A    between atoms: _544  and  _545
REMARK  233  A    between atoms: _545  and  _546
REMARK  234  A    between atoms: _552  and  _553
REMARK  235  A    between atoms: _558  and  _560
REMARK  236  A    between atoms: _560  and  _561
REMARK  237  A    between atoms: _560  and  _563
REMARK  238  A    between atoms: _563  and  _564
REMARK  239  A    between atoms: _567  and  _569
REMARK  240  A    between atoms: _569  and  _570
REMARK  241  A    between atoms: _569  and  _572
REMARK  242  A    between atoms: _572  and  _573
REMARK  243  A    between atoms: _573  and  _574
REMARK  244  A    between atoms: _577  and  _579
REMARK  245  A    between atoms: _579  and  _580
REMARK  246  A    between atoms: _579  and  _582
REMARK  247  A    between atoms: _585  and  _587
REMARK  248  A    between atoms: _587  and  _588
REMARK  249  A    between atoms: _591  and  _593
REMARK  250  A    between atoms: _593  and  _594
REMARK  251  A    between atoms: _593  and  _596
REMARK  252  A    between atoms: _596  and  _597
REMARK  253  A    between atoms: _597  and  _598
REMARK  254  A    between atoms: _601  and  _603
REMARK  255  A    between atoms: _603  and  _604
REMARK  256  A    between atoms: _606  and  _608
REMARK  257  A    between atoms: _608  and  _609
REMARK  258  A    between atoms: _608  and  _611
REMARK  259  A    between atoms: _611  and  _612
REMARK                            x       y       z     vdW  Elec       q    Type
REMARK                         _______ _______ _______ _____ _____    ______ ____
ROOT
ATOM      1  O   HOH     1      25.010  74.711  26.351  0.00  0.00    +0.000 OA
ENDROOT
TORSDOF 0
REMARK  Name = ../refined-set-2016/4jne/4jne_pocket.pdb
REMARK  259 active torsions:
REMARK  status: ('A' for Active; 'I' for Inactive)
REMARK    1  A    between atoms: _1  and  _3
REMARK    2  A    between atoms: _3  and  _4
REMARK    3  A    between atoms: _3  and  _6
REMARK    4  A    between atoms: _6  and  _7
REMARK    5  A    between atoms: _10  and  _12
REMARK    6  A    between atoms: _12  and  _13
REMARK    7  A    between atoms: _12  and  _15
REMARK    8  A    between atoms: _15  and  _16
REMARK    9  A    between atoms: _19  and  _21
REMARK   10  A    between atoms: _21  and  _22
REMARK   11  A    between atoms: _24  and  _26
REMARK   12  A    between atoms: _26  and  _27
REMARK   13  A    between atoms: _26  and  _29
REMARK   14  A    between atoms: _29  and  _30
REMARK   15  A    between atoms: _33  and  _35
REMARK   16  A    between atoms: _35  and  _36
REMARK   17  A    between atoms: _35  and  _38
REMARK   18  A    between atoms: _38  and  _39
REMARK   19  A    between atoms: _42  and  _44
REMARK   20  A    between atoms: _44  and  _45
REMARK   21  A    between atoms: _44  and  _47
REMARK   22  A    between atoms: _47  and  _48
REMARK   23  A    between atoms: _53  and  _55
REMARK   24  A    between atoms: _55  and  _56
REMARK   25  A    between atoms: _55  and  _58
REMARK   26  A    between atoms: _58  and  _59
REMARK   27  A    between atoms: _61  and  _63
REMARK   28  A    between atoms: _63  and  _64
REMARK   29  A    between atoms: _63  and  _66
REMARK   30  A    between atoms: _68  and  _70
REMARK   31  A    between atoms: _70  and  _71
REMARK   32  A    between atoms: _70  and  _73
REMARK   33  A    between atoms: _73  and  _74
REMARK   34  A    between atoms: _77  and  _79
REMARK   35  A    between atoms: _79  and  _80
REMARK   36  A    between atoms: _79  and  _82
REMARK   37  A    between atoms: _82  and  _83
REMARK   38  A    between atoms: _87  and  _88
REMARK   39  A    between atoms: _93  and  _95
REMARK   40  A    between atoms: _95  and  _96
REMARK   41  A    between atoms: _95  and  _98
REMARK   42  A    between atoms: _98  and  _99
REMARK   43  A    between atoms: _101  and  _103
REMARK   44  A    between atoms: _103  and  _104
REMARK   45  A    between atoms: _103  and  _106
REMARK   46  A    between atoms: _106  and  _107
REMARK   47  A    between atoms: _107  and  _108
REMARK   48  A    between atoms: _108  and  _109
REMARK   49  A    between atoms: _109  and  _110
REMARK   50  A    between atoms: _114  and  _116
REMARK   51  A    between atoms: _116  and  _117
REMARK   52  A    between atoms: _120  and  _122
REMARK   53  A    between atoms: _122  and  _123
REMARK   54  A    between atoms: _122  and  _125
REMARK   55  A    between atoms: _125  and  _126
REMARK   56  A    between atoms: _126  and  _127
REMARK   57  A    between atoms: _127  and  _128
REMARK   58  A    between atoms: _128  and  _129
REMARK   59  A    between atoms: _133  and  _135
REMARK   60  A    between atoms: _135  and  _136
REMARK   61  A    between atoms: _135  and  _138
REMARK   62  A    between atoms: _138  and  _139
REMARK   63  A    between atoms: _139  and  _140
REMARK   64  A    between atoms: _140  and  _141
REMARK   65  A    between atoms: _150  and  _152
REMARK   66  A    between atoms: _152  and  _153
REMARK   67  A    between atoms: _152  and  _155
REMARK   68  A    between atoms: _155  and  _156
REMARK   69  A    between atoms: _159  and  _161
REMARK   70  A    between atoms: _161  and  _162
REMARK   71  A    between atoms: _161  and  _164
REMARK   72  A    between atoms: _168  and  _169
REMARK   73  A    between atoms: _174  and  _176
REMARK   74  A    between atoms: _176  and  _177
REMARK   75  A    between atoms: _180  and  _182
REMARK   76  A    between atoms: _182  and  _183
REMARK   77  A    between atoms: _182  and  _185
REMARK   78  A    between atoms: _185  and  _186
REMARK   79  A    between atoms: _192  and  _194
REMARK   80  A    between atoms: _194  and  _195
REMARK   81  A    between atoms: _194  and  _197
REMARK   82  A    between atoms: _197  and  _198
REMARK   83  A    between atoms: _198  and  _199
REMARK   84  A    between atoms: _202  and  _204
REMARK   85  A    between atoms: _204  and  _205
REMARK   86  A    between atoms: _204  and  _207
REMARK   87  A    between atoms: _207  and  _208
REMARK   88  A    between atoms: _211  and  _213
REMARK   89  A    between atoms: _213  and  _214
REMARK   90  A    between atoms: _213  and  _216
REMARK   91  A    between atoms: _216  and  _217
REMARK   92  A    between atoms: _220  and  _222
REMARK   93  A    between atoms: _222  and  _223
REMARK   94  A    between atoms: _225  and  _227
REMARK   95  A    between atoms: _227  and  _228
REMARK   96  A    between atoms: _230  and  _232
REMARK   97  A    between atoms: _232  and  _233
REMARK   98  A    between atoms: _235  and  _237
REMARK   99  A    between atoms: _237  and  _238
REMARK  100  A    between atoms: _241  and  _243
REMARK  101  A    between atoms: _243  and  _244
REMARK  102  A    between atoms: _243  and  _246
REMARK  103  A    between atoms: _246  and  _247
REMARK  104  A    between atoms: _253  and  _255
REMARK  105  A    between atoms: _255  and  _256
REMARK  106  A    between atoms: _255  and  _258
REMARK  107  A    between atoms: _258  and  _259
REMARK  108  A    between atoms: _262  and  _264
REMARK  109  A    between atoms: _264  and  _265
REMARK  110  A    between atoms: _264  and  _267
REMARK  111  A    between atoms: _267  and  _268
REMARK  112  A    between atoms: _271  and  _273
REMARK  113  A    between atoms: _273  and  _274
REMARK  114  A    between atoms: _273  and  _276
REMARK  115  A    between atoms: _276  and  _277
REMARK  116  A    between atoms: _280  and  _282
REMARK  117  A    between atoms: _282  and  _283
REMARK  118  A    between atoms: _282  and  _285
REMARK  119  A    between atoms: _285  and  _286
REMARK  120  A    between atoms: _289  and  _291
REMARK  121  A    between atoms: _291  and  _292
REMARK  122  A    between atoms: _294  and  _296
REMARK  123  A    between atoms: _296  and  _297
REMARK  124  A    between atoms: _299  and  _301
REMARK  125  A    between atoms: _301  and  _302
REMARK  126  A    between atoms: _301  and  _304
REMARK  127  A    between atoms: _304  and  _305
REMARK  128  A    between atoms: _305  and  _306
REMARK  129  A    between atoms: _309  and  _311
REMARK  130  A    between atoms: _311  and  _312
REMARK  131  A    between atoms: _311  and  _314
REMARK  132  A    between atoms: _314  and  _315
REMARK  133  A    between atoms: _318  and  _320
REMARK  134  A    between atoms: _320  and  _321
REMARK  135  A    between atoms: _320  and  _323
REMARK  136  A    between atoms: _323  and  _324
REMARK  137  A    between atoms: _330  and  _332
REMARK  138  A    between atoms: _332  and  _333
REMARK  139  A    between atoms: _332  and  _335
REMARK  140  A    between atoms: _335  and  _336
REMARK  141  A    between atoms: _339  and  _341
REMARK  142  A    between atoms: _341  and  _342
REMARK  143  A    between atoms: _341  and  _344
REMARK  144  A    between atoms: _344  and  _345
REMARK  145  A    between atoms: _345  and  _346
REMARK  146  A    between atoms: _346  and  _347
REMARK  147  A    between atoms: _347  and  _348
REMARK  148  A    between atoms: _352  and  _354
REMARK  149  A    between atoms: _354  and  _355
REMARK  150  A    between atoms: _358  and  _360
REMARK  151  A    between atoms: _360  and  _361
REMARK  152  A    between atoms: _360  and  _363
REMARK  153  A    between atoms: _363  and  _364
REMARK  154  A    between atoms: _364  and  _365
REMARK  155  A    between atoms: _368  and  _370
REMARK  156  A    between atoms: _370  and  _371
REMARK  157  A    between atoms: _370  and  _373
REMARK  158  A    between atoms: _373  and  _374
REMARK  159  A    between atoms: _374  and  _375
REMARK  160  A    between atoms: _375  and  _376
REMARK  161  A    between atoms: _376  and  _377
REMARK  162  A    between atoms: _381  and  _383
REMARK  163  A    between atoms: _383  and  _384
REMARK  164  A    between atoms: _387  and  _389
REMARK  165  A    between atoms: _389  and  _390
REMARK  166  A    between atoms: _389  and  _392
REMARK  167  A    between atoms: _392  and  _393
REMARK  168  A    between atoms: _393  and  _394
REMARK  169  A    between atoms: _394  and  _395
REMARK  170  A    between atoms: _395  and  _396
REMARK  171  A    between atoms: _400  and  _402
REMARK  172  A    between atoms: _402  and  _403
REMARK  173  A    between atoms: _402  and  _405
REMARK  174  A    between atoms: _405  and  _406
REMARK  175  A    between atoms: _409  and  _411
REMARK  176  A    between atoms: _411  and  _412
REMARK  177  A    between atoms: _411  and  _414
REMARK  178  A    between atoms: _414  and  _415
REMARK  179  A    between atoms: _415  and  _416
REMARK  180  A    between atoms: _419  and  _421
REMARK  181  A    between atoms: _421  and  _422
REMARK  182  A    between atoms: _421  and  _424
REMARK  183  A    between atoms: _424  and  _425
REMARK  184  A    between atoms: _428  and  _430
REMARK  185  A    between atoms: _430  and  _431
REMARK  186  A    between atoms: _430  and  _433
REMARK  187  A    between atoms: _433  and  _434
REMARK  188  A    between atoms: _436  and  _438
REMARK  189  A    between atoms: _438  and  _439
REMARK  190  A    between atoms: _438  and  _441
REMARK  191  A    between atoms: _441  and  _442
REMARK  192  A    between atoms: _444  and  _446
REMARK  193  A    between atoms: _446  and  _447
REMARK  194  A    between atoms: _450  and  _452
REMARK  195  A    between atoms: _452  and  _453
REMARK  196  A    between atoms: _452  and  _455
REMARK  197  A    between atoms: _455  and  _456
REMARK  198  A    between atoms: _459  and  _461
REMARK  199  A    between atoms: _461  and  _462
REMARK  200  A    between atoms: _461  and  _464
REMARK  201  A    between atoms: _467  and  _469
REMARK  202  A    between atoms: _469  and  _470
REMARK  203  A    between atoms: _472  and  _474
REMARK  204  A    between atoms: _474  and  _475
REMARK  205  A    between atoms: _477  and  _479
REMARK  206  A    between atoms: _479  and  _480
REMARK  207  A    between atoms: _479  and  _482
REMARK  208  A    between atoms: _482  and  _483
REMARK  209  A    between atoms: _483  and  _484
REMARK  210  A    between atoms: _489  and  _491
REMARK  211  A    between atoms: _491  and  _492
REMARK  212  A    between atoms: _491  and  _494
REMARK  213  A    between atoms: _494  and  _495
REMARK  214  A    between atoms: _498  and  _500
REMARK  215  A    between atoms: _500  and  _501
REMARK  216  A    between atoms: _500  and  _503
REMARK  217  A    between atoms: _503  and  _504
REMARK  218  A    between atoms: _504  and  _505
REMARK  219  A    between atoms: _505  and  _506
REMARK  220  A    between atoms: _515  and  _517
REMARK  221  A    between atoms: _517  and  _518
REMARK  222  A    between atoms: _517  and  _520
REMARK  223  A    between atoms: _520  and  _521
REMARK  224  A    between atoms: _521  and  _522
REMARK  225  A    between atoms: _525  and  _526
REMARK  226  A    between atoms: _531  and  _533
REMARK  227  A    between atoms: _533  and  _534
REMARK  228  A    between atoms: _533  and  _536
REMARK  229  A    between atoms: _539  and  _541
REMARK  230  A    between atoms: _541  and  _542
REMARK  231  A    between atoms: _541  and  _544
REMARK  232  A    between atoms: _544  and  _545
REMARK  233  A    between atoms: _545  and  _546
REMARK  234  A    between atoms: _552  and  _553
REMARK  235  A    between atoms: _558  and  _560
REMARK  236  A    between atoms: _560  and  _561
REMARK  237  A    between atoms: _560  and  _563
REMARK  238  A    between atoms: _563  and  _564
REMARK  239  A    between atoms: _567  and  _569
REMARK  240  A    between atoms: _569  and  _570
REMARK  241  A    between atoms: _569  and  _572
REMARK  242  A    between atoms: _572  and  _573
REMARK  243  A    between atoms: _573  and  _574
REMARK  244  A    between atoms: _577  and  _579
REMARK  245  A    between atoms: _579  and  _580
REMARK  246  A    between atoms: _579  and  _582
REMARK  247  A    between atoms: _585  and  _587
REMARK  248  A    between atoms: _587  and  _588
REMARK  249  A    between atoms: _591  and  _593
REMARK  250  A    between atoms: _593  and  _594
REMARK  251  A    between atoms: _593  and  _596
REMARK  252  A    between atoms: _596  and  _597
REMARK  253  A    between atoms: _597  and  _598
REMARK  254  A    between atoms: _601  and  _603
REMARK  255  A    between atoms: _603  and  _604
REMARK  256  A    between atoms: _606  and  _608
REMARK  257  A    between atoms: _608  and  _609
REMARK  258  A    between atoms: _608  and  _611
REMARK  259  A    between atoms: _611  and  _612
REMARK                            x       y       z     vdW  Elec       q    Type
REMARK                         _______ _______ _______ _____ _____    ______ ____
ROOT
ATOM      1  O   HOH     1       7.013  81.418  27.652  0.00  0.00    +0.000 OA
ENDROOT
TORSDOF 0
REMARK  Name = ../refined-set-2016/4jne/4jne_pocket.pdb
REMARK  259 active torsions:
REMARK  status: ('A' for Active; 'I' for Inactive)
REMARK    1  A    between atoms: _1  and  _3
REMARK    2  A    between atoms: _3  and  _4
REMARK    3  A    between atoms: _3  and  _6
REMARK    4  A    between atoms: _6  and  _7
REMARK    5  A    between atoms: _10  and  _12
REMARK    6  A    between atoms: _12  and  _13
REMARK    7  A    between atoms: _12  and  _15
REMARK    8  A    between atoms: _15  and  _16
REMARK    9  A    between atoms: _19  and  _21
REMARK   10  A    between atoms: _21  and  _22
REMARK   11  A    between atoms: _24  and  _26
REMARK   12  A    between atoms: _26  and  _27
REMARK   13  A    between atoms: _26  and  _29
REMARK   14  A    between atoms: _29  and  _30
REMARK   15  A    between atoms: _33  and  _35
REMARK   16  A    between atoms: _35  and  _36
REMARK   17  A    between atoms: _35  and  _38
REMARK   18  A    between atoms: _38  and  _39
REMARK   19  A    between atoms: _42  and  _44
REMARK   20  A    between atoms: _44  and  _45
REMARK   21  A    between atoms: _44  and  _47
REMARK   22  A    between atoms: _47  and  _48
REMARK   23  A    between atoms: _53  and  _55
REMARK   24  A    between atoms: _55  and  _56
REMARK   25  A    between atoms: _55  and  _58
REMARK   26  A    between atoms: _58  and  _59
REMARK   27  A    between atoms: _61  and  _63
REMARK   28  A    between atoms: _63  and  _64
REMARK   29  A    between atoms: _63  and  _66
REMARK   30  A    between atoms: _68  and  _70
REMARK   31  A    between atoms: _70  and  _71
REMARK   32  A    between atoms: _70  and  _73
REMARK   33  A    between atoms: _73  and  _74
REMARK   34  A    between atoms: _77  and  _79
REMARK   35  A    between atoms: _79  and  _80
REMARK   36  A    between atoms: _79  and  _82
REMARK   37  A    between atoms: _82  and  _83
REMARK   38  A    between atoms: _87  and  _88
REMARK   39  A    between atoms: _93  and  _95
REMARK   40  A    between atoms: _95  and  _96
REMARK   41  A    between atoms: _95  and  _98
REMARK   42  A    between atoms: _98  and  _99
REMARK   43  A    between atoms: _101  and  _103
REMARK   44  A    between atoms: _103  and  _104
REMARK   45  A    between atoms: _103  and  _106
REMARK   46  A    between atoms: _106  and  _107
REMARK   47  A    between atoms: _107  and  _108
REMARK   48  A    between atoms: _108  and  _109
REMARK   49  A    between atoms: _109  and  _110
REMARK   50  A    between atoms: _114  and  _116
REMARK   51  A    between atoms: _116  and  _117
REMARK   52  A    between atoms: _120  and  _122
REMARK   53  A    between atoms: _122  and  _123
REMARK   54  A    between atoms: _122  and  _125
REMARK   55  A    between atoms: _125  and  _126
REMARK   56  A    between atoms: _126  and  _127
REMARK   57  A    between atoms: _127  and  _128
REMARK   58  A    between atoms: _128  and  _129
REMARK   59  A    between atoms: _133  and  _135
REMARK   60  A    between atoms: _135  and  _136
REMARK   61  A    between atoms: _135  and  _138
REMARK   62  A    between atoms: _138  and  _139
REMARK   63  A    between atoms: _139  and  _140
REMARK   64  A    between atoms: _140  and  _141
REMARK   65  A    between atoms: _150  and  _152
REMARK   66  A    between atoms: _152  and  _153
REMARK   67  A    between atoms: _152  and  _155
REMARK   68  A    between atoms: _155  and  _156
REMARK   69  A    between atoms: _159  and  _161
REMARK   70  A    between atoms: _161  and  _162
REMARK   71  A    between atoms: _161  and  _164
REMARK   72  A    between atoms: _168  and  _169
REMARK   73  A    between atoms: _174  and  _176
REMARK   74  A    between atoms: _176  and  _177
REMARK   75  A    between atoms: _180  and  _182
REMARK   76  A    between atoms: _182  and  _183
REMARK   77  A    between atoms: _182  and  _185
REMARK   78  A    between atoms: _185  and  _186
REMARK   79  A    between atoms: _192  and  _194
REMARK   80  A    between atoms: _194  and  _195
REMARK   81  A    between atoms: _194  and  _197
REMARK   82  A    between atoms: _197  and  _198
REMARK   83  A    between atoms: _198  and  _199
REMARK   84  A    between atoms: _202  and  _204
REMARK   85  A    between atoms: _204  and  _205
REMARK   86  A    between atoms: _204  and  _207
REMARK   87  A    between atoms: _207  and  _208
REMARK   88  A    between atoms: _211  and  _213
REMARK   89  A    between atoms: _213  and  _214
REMARK   90  A    between atoms: _213  and  _216
REMARK   91  A    between atoms: _216  and  _217
REMARK   92  A    between atoms: _220  and  _222
REMARK   93  A    between atoms: _222  and  _223
REMARK   94  A    between atoms: _225  and  _227
REMARK   95  A    between atoms: _227  and  _228
REMARK   96  A    between atoms: _230  and  _232
REMARK   97  A    between atoms: _232  and  _233
REMARK   98  A    between atoms: _235  and  _237
REMARK   99  A    between atoms: _237  and  _238
REMARK  100  A    between atoms: _241  and  _243
REMARK  101  A    between atoms: _243  and  _244
REMARK  102  A    between atoms: _243  and  _246
REMARK  103  A    between atoms: _246  and  _247
REMARK  104  A    between atoms: _253  and  _255
REMARK  105  A    between atoms: _255  and  _256
REMARK  106  A    between atoms: _255  and  _258
REMARK  107  A    between atoms: _258  and  _259
REMARK  108  A    between atoms: _262  and  _264
REMARK  109  A    between atoms: _264  and  _265
REMARK  110  A    between atoms: _264  and  _267
REMARK  111  A    between atoms: _267  and  _268
REMARK  112  A    between atoms: _271  and  _273
REMARK  113  A    between atoms: _273  and  _274
REMARK  114  A    between atoms: _273  and  _276
REMARK  115  A    between atoms: _276  and  _277
REMARK  116  A    between atoms: _280  and  _282
REMARK  117  A    between atoms: _282  and  _283
REMARK  118  A    between atoms: _282  and  _285
REMARK  119  A    between atoms: _285  and  _286
REMARK  120  A    between atoms: _289  and  _291
REMARK  121  A    between atoms: _291  and  _292
REMARK  122  A    between atoms: _294  and  _296
REMARK  123  A    between atoms: _296  and  _297
REMARK  124  A    between atoms: _299  and  _301
REMARK  125  A    between atoms: _301  and  _302
REMARK  126  A    between atoms: _301  and  _304
REMARK  127  A    between atoms: _304  and  _305
REMARK  128  A    between atoms: _305  and  _306
REMARK  129  A    between atoms: _309  and  _311
REMARK  130  A    between atoms: _311  and  _312
REMARK  131  A    between atoms: _311  and  _314
REMARK  132  A    between atoms: _314  and  _315
REMARK  133  A    between atoms: _318  and  _320
REMARK  134  A    between atoms: _320  and  _321
REMARK  135  A    between atoms: _320  and  _323
REMARK  136  A    between atoms: _323  and  _324
REMARK  137  A    between atoms: _330  and  _332
REMARK  138  A    between atoms: _332  and  _333
REMARK  139  A    between atoms: _332  and  _335
REMARK  140  A    between atoms: _335  and  _336
REMARK  141  A    between atoms: _339  and  _341
REMARK  142  A    between atoms: _341  and  _342
REMARK  143  A    between atoms: _341  and  _344
REMARK  144  A    between atoms: _344  and  _345
REMARK  145  A    between atoms: _345  and  _346
REMARK  146  A    between atoms: _346  and  _347
REMARK  147  A    between atoms: _347  and  _348
REMARK  148  A    between atoms: _352  and  _354
REMARK  149  A    between atoms: _354  and  _355
REMARK  150  A    between atoms: _358  and  _360
REMARK  151  A    between atoms: _360  and  _361
REMARK  152  A    between atoms: _360  and  _363
REMARK  153  A    between atoms: _363  and  _364
REMARK  154  A    between atoms: _364  and  _365
REMARK  155  A    between atoms: _368  and  _370
REMARK  156  A    between atoms: _370  and  _371
REMARK  157  A    between atoms: _370  and  _373
REMARK  158  A    between atoms: _373  and  _374
REMARK  159  A    between atoms: _374  and  _375
REMARK  160  A    between atoms: _375  and  _376
REMARK  161  A    between atoms: _376  and  _377
REMARK  162  A    between atoms: _381  and  _383
REMARK  163  A    between atoms: _383  and  _384
REMARK  164  A    between atoms: _387  and  _389
REMARK  165  A    between atoms: _389  and  _390
REMARK  166  A    between atoms: _389  and  _392
REMARK  167  A    between atoms: _392  and  _393
REMARK  168  A    between atoms: _393  and  _394
REMARK  169  A    between atoms: _394  and  _395
REMARK  170  A    between atoms: _395  and  _396
REMARK  171  A    between atoms: _400  and  _402
REMARK  172  A    between atoms: _402  and  _403
REMARK  173  A    between atoms: _402  and  _405
REMARK  174  A    between atoms: _405  and  _406
REMARK  175  A    between atoms: _409  and  _411
REMARK  176  A    between atoms: _411  and  _412
REMARK  177  A    between atoms: _411  and  _414
REMARK  178  A    between atoms: _414  and  _415
REMARK  179  A    between atoms: _415  and  _416
REMARK  180  A    between atoms: _419  and  _421
REMARK  181  A    between atoms: _421  and  _422
REMARK  182  A    between atoms: _421  and  _424
REMARK  183  A    between atoms: _424  and  _425
REMARK  184  A    between atoms: _428  and  _430
REMARK  185  A    between atoms: _430  and  _431
REMARK  186  A    between atoms: _430  and  _433
REMARK  187  A    between atoms: _433  and  _434
REMARK  188  A    between atoms: _436  and  _438
REMARK  189  A    between atoms: _438  and  _439
REMARK  190  A    between atoms: _438  and  _441
REMARK  191  A    between atoms: _441  and  _442
REMARK  192  A    between atoms: _444  and  _446
REMARK  193  A    between atoms: _446  and  _447
REMARK  194  A    between atoms: _450  and  _452
REMARK  195  A    between atoms: _452  and  _453
REMARK  196  A    between atoms: _452  and  _455
REMARK  197  A    between atoms: _455  and  _456
REMARK  198  A    between atoms: _459  and  _461
REMARK  199  A    between atoms: _461  and  _462
REMARK  200  A    between atoms: _461  and  _464
REMARK  201  A    between atoms: _467  and  _469
REMARK  202  A    between atoms: _469  and  _470
REMARK  203  A    between atoms: _472  and  _474
REMARK  204  A    between atoms: _474  and  _475
REMARK  205  A    between atoms: _477  and  _479
REMARK  206  A    between atoms: _479  and  _480
REMARK  207  A    between atoms: _479  and  _482
REMARK  208  A    between atoms: _482  and  _483
REMARK  209  A    between atoms: _483  and  _484
REMARK  210  A    between atoms: _489  and  _491
REMARK  211  A    between atoms: _491  and  _492
REMARK  212  A    between atoms: _491  and  _494
REMARK  213  A    between atoms: _494  and  _495
REMARK  214  A    between atoms: _498  and  _500
REMARK  215  A    between atoms: _500  and  _501
REMARK  216  A    between atoms: _500  and  _503
REMARK  217  A    between atoms: _503  and  _504
REMARK  218  A    between atoms: _504  and  _505
REMARK  219  A    between atoms: _505  and  _506
REMARK  220  A    between atoms: _515  and  _517
REMARK  221  A    between atoms: _517  and  _518
REMARK  222  A    between atoms: _517  and  _520
REMARK  223  A    between atoms: _520  and  _521
REMARK  224  A    between atoms: _521  and  _522
REMARK  225  A    between atoms: _525  and  _526
REMARK  226  A    between atoms: _531  and  _533
REMARK  227  A    between atoms: _533  and  _534
REMARK  228  A    between atoms: _533  and  _536
REMARK  229  A    between atoms: _539  and  _541
REMARK  230  A    between atoms: _541  and  _542
REMARK  231  A    between atoms: _541  and  _544
REMARK  232  A    between atoms: _544  and  _545
REMARK  233  A    between atoms: _545  and  _546
REMARK  234  A    between atoms: _552  and  _553
REMARK  235  A    between atoms: _558  and  _560
REMARK  236  A    between atoms: _560  and  _561
REMARK  237  A    between atoms: _560  and  _563
REMARK  238  A    between atoms: _563  and  _564
REMARK  239  A    between atoms: _567  and  _569
REMARK  240  A    between atoms: _569  and  _570
REMARK  241  A    between atoms: _569  and  _572
REMARK  242  A    between atoms: _572  and  _573
REMARK  243  A    between atoms: _573  and  _574
REMARK  244  A    between atoms: _577  and  _579
REMARK  245  A    between atoms: _579  and  _580
REMARK  246  A    between atoms: _579  and  _582
REMARK  247  A    between atoms: _585  and  _587
REMARK  248  A    between atoms: _587  and  _588
REMARK  249  A    between atoms: _591  and  _593
REMARK  250  A    between atoms: _593  and  _594
REMARK  251  A    between atoms: _593  and  _596
REMARK  252  A    between atoms: _596  and  _597
REMARK  253  A    between atoms: _597  and  _598
REMARK  254  A    between atoms: _601  and  _603
REMARK  255  A    between atoms: _603  and  _604
REMARK  256  A    between atoms: _606  and  _608
REMARK  257  A    between atoms: _608  and  _609
REMARK  258  A    between atoms: _608  and  _611
REMARK  259  A    between atoms: _611  and  _612
REMARK                            x       y       z     vdW  Elec       q    Type
REMARK                         _______ _______ _______ _____ _____    ______ ____
ROOT
ATOM      1  O   HOH     1      24.208  75.093  28.982  0.00  0.00    +0.000 OA
ENDROOT
TORSDOF 0
REMARK  Name = ../refined-set-2016/4jne/4jne_pocket.pdb
REMARK  259 active torsions:
REMARK  status: ('A' for Active; 'I' for Inactive)
REMARK    1  A    between atoms: _1  and  _3
REMARK    2  A    between atoms: _3  and  _4
REMARK    3  A    between atoms: _3  and  _6
REMARK    4  A    between atoms: _6  and  _7
REMARK    5  A    between atoms: _10  and  _12
REMARK    6  A    between atoms: _12  and  _13
REMARK    7  A    between atoms: _12  and  _15
REMARK    8  A    between atoms: _15  and  _16
REMARK    9  A    between atoms: _19  and  _21
REMARK   10  A    between atoms: _21  and  _22
REMARK   11  A    between atoms: _24  and  _26
REMARK   12  A    between atoms: _26  and  _27
REMARK   13  A    between atoms: _26  and  _29
REMARK   14  A    between atoms: _29  and  _30
REMARK   15  A    between atoms: _33  and  _35
REMARK   16  A    between atoms: _35  and  _36
REMARK   17  A    between atoms: _35  and  _38
REMARK   18  A    between atoms: _38  and  _39
REMARK   19  A    between atoms: _42  and  _44
REMARK   20  A    between atoms: _44  and  _45
REMARK   21  A    between atoms: _44  and  _47
REMARK   22  A    between atoms: _47  and  _48
REMARK   23  A    between atoms: _53  and  _55
REMARK   24  A    between atoms: _55  and  _56
REMARK   25  A    between atoms: _55  and  _58
REMARK   26  A    between atoms: _58  and  _59
REMARK   27  A    between atoms: _61  and  _63
REMARK   28  A    between atoms: _63  and  _64
REMARK   29  A    between atoms: _63  and  _66
REMARK   30  A    between atoms: _68  and  _70
REMARK   31  A    between atoms: _70  and  _71
REMARK   32  A    between atoms: _70  and  _73
REMARK   33  A    between atoms: _73  and  _74
REMARK   34  A    between atoms: _77  and  _79
REMARK   35  A    between atoms: _79  and  _80
REMARK   36  A    between atoms: _79  and  _82
REMARK   37  A    between atoms: _82  and  _83
REMARK   38  A    between atoms: _87  and  _88
REMARK   39  A    between atoms: _93  and  _95
REMARK   40  A    between atoms: _95  and  _96
REMARK   41  A    between atoms: _95  and  _98
REMARK   42  A    between atoms: _98  and  _99
REMARK   43  A    between atoms: _101  and  _103
REMARK   44  A    between atoms: _103  and  _104
REMARK   45  A    between atoms: _103  and  _106
REMARK   46  A    between atoms: _106  and  _107
REMARK   47  A    between atoms: _107  and  _108
REMARK   48  A    between atoms: _108  and  _109
REMARK   49  A    between atoms: _109  and  _110
REMARK   50  A    between atoms: _114  and  _116
REMARK   51  A    between atoms: _116  and  _117
REMARK   52  A    between atoms: _120  and  _122
REMARK   53  A    between atoms: _122  and  _123
REMARK   54  A    between atoms: _122  and  _125
REMARK   55  A    between atoms: _125  and  _126
REMARK   56  A    between atoms: _126  and  _127
REMARK   57  A    between atoms: _127  and  _128
REMARK   58  A    between atoms: _128  and  _129
REMARK   59  A    between atoms: _133  and  _135
REMARK   60  A    between atoms: _135  and  _136
REMARK   61  A    between atoms: _135  and  _138
REMARK   62  A    between atoms: _138  and  _139
REMARK   63  A    between atoms: _139  and  _140
REMARK   64  A    between atoms: _140  and  _141
REMARK   65  A    between atoms: _150  and  _152
REMARK   66  A    between atoms: _152  and  _153
REMARK   67  A    between atoms: _152  and  _155
REMARK   68  A    between atoms: _155  and  _156
REMARK   69  A    between atoms: _159  and  _161
REMARK   70  A    between atoms: _161  and  _162
REMARK   71  A    between atoms: _161  and  _164
REMARK   72  A    between atoms: _168  and  _169
REMARK   73  A    between atoms: _174  and  _176
REMARK   74  A    between atoms: _176  and  _177
REMARK   75  A    between atoms: _180  and  _182
REMARK   76  A    between atoms: _182  and  _183
REMARK   77  A    between atoms: _182  and  _185
REMARK   78  A    between atoms: _185  and  _186
REMARK   79  A    between atoms: _192  and  _194
REMARK   80  A    between atoms: _194  and  _195
REMARK   81  A    between atoms: _194  and  _197
REMARK   82  A    between atoms: _197  and  _198
REMARK   83  A    between atoms: _198  and  _199
REMARK   84  A    between atoms: _202  and  _204
REMARK   85  A    between atoms: _204  and  _205
REMARK   86  A    between atoms: _204  and  _207
REMARK   87  A    between atoms: _207  and  _208
REMARK   88  A    between atoms: _211  and  _213
REMARK   89  A    between atoms: _213  and  _214
REMARK   90  A    between atoms: _213  and  _216
REMARK   91  A    between atoms: _216  and  _217
REMARK   92  A    between atoms: _220  and  _222
REMARK   93  A    between atoms: _222  and  _223
REMARK   94  A    between atoms: _225  and  _227
REMARK   95  A    between atoms: _227  and  _228
REMARK   96  A    between atoms: _230  and  _232
REMARK   97  A    between atoms: _232  and  _233
REMARK   98  A    between atoms: _235  and  _237
REMARK   99  A    between atoms: _237  and  _238
REMARK  100  A    between atoms: _241  and  _243
REMARK  101  A    between atoms: _243  and  _244
REMARK  102  A    between atoms: _243  and  _246
REMARK  103  A    between atoms: _246  and  _247
REMARK  104  A    between atoms: _253  and  _255
REMARK  105  A    between atoms: _255  and  _256
REMARK  106  A    between atoms: _255  and  _258
REMARK  107  A    between atoms: _258  and  _259
REMARK  108  A    between atoms: _262  and  _264
REMARK  109  A    between atoms: _264  and  _265
REMARK  110  A    between atoms: _264  and  _267
REMARK  111  A    between atoms: _267  and  _268
REMARK  112  A    between atoms: _271  and  _273
REMARK  113  A    between atoms: _273  and  _274
REMARK  114  A    between atoms: _273  and  _276
REMARK  115  A    between atoms: _276  and  _277
REMARK  116  A    between atoms: _280  and  _282
REMARK  117  A    between atoms: _282  and  _283
REMARK  118  A    between atoms: _282  and  _285
REMARK  119  A    between atoms: _285  and  _286
REMARK  120  A    between atoms: _289  and  _291
REMARK  121  A    between atoms: _291  and  _292
REMARK  122  A    between atoms: _294  and  _296
REMARK  123  A    between atoms: _296  and  _297
REMARK  124  A    between atoms: _299  and  _301
REMARK  125  A    between atoms: _301  and  _302
REMARK  126  A    between atoms: _301  and  _304
REMARK  127  A    between atoms: _304  and  _305
REMARK  128  A    between atoms: _305  and  _306
REMARK  129  A    between atoms: _309  and  _311
REMARK  130  A    between atoms: _311  and  _312
REMARK  131  A    between atoms: _311  and  _314
REMARK  132  A    between atoms: _314  and  _315
REMARK  133  A    between atoms: _318  and  _320
REMARK  134  A    between atoms: _320  and  _321
REMARK  135  A    between atoms: _320  and  _323
REMARK  136  A    between atoms: _323  and  _324
REMARK  137  A    between atoms: _330  and  _332
REMARK  138  A    between atoms: _332  and  _333
REMARK  139  A    between atoms: _332  and  _335
REMARK  140  A    between atoms: _335  and  _336
REMARK  141  A    between atoms: _339  and  _341
REMARK  142  A    between atoms: _341  and  _342
REMARK  143  A    between atoms: _341  and  _344
REMARK  144  A    between atoms: _344  and  _345
REMARK  145  A    between atoms: _345  and  _346
REMARK  146  A    between atoms: _346  and  _347
REMARK  147  A    between atoms: _347  and  _348
REMARK  148  A    between atoms: _352  and  _354
REMARK  149  A    between atoms: _354  and  _355
REMARK  150  A    between atoms: _358  and  _360
REMARK  151  A    between atoms: _360  and  _361
REMARK  152  A    between atoms: _360  and  _363
REMARK  153  A    between atoms: _363  and  _364
REMARK  154  A    between atoms: _364  and  _365
REMARK  155  A    between atoms: _368  and  _370
REMARK  156  A    between atoms: _370  and  _371
REMARK  157  A    between atoms: _370  and  _373
REMARK  158  A    between atoms: _373  and  _374
REMARK  159  A    between atoms: _374  and  _375
REMARK  160  A    between atoms: _375  and  _376
REMARK  161  A    between atoms: _376  and  _377
REMARK  162  A    between atoms: _381  and  _383
REMARK  163  A    between atoms: _383  and  _384
REMARK  164  A    between atoms: _387  and  _389
REMARK  165  A    between atoms: _389  and  _390
REMARK  166  A    between atoms: _389  and  _392
REMARK  167  A    between atoms: _392  and  _393
REMARK  168  A    between atoms: _393  and  _394
REMARK  169  A    between atoms: _394  and  _395
REMARK  170  A    between atoms: _395  and  _396
REMARK  171  A    between atoms: _400  and  _402
REMARK  172  A    between atoms: _402  and  _403
REMARK  173  A    between atoms: _402  and  _405
REMARK  174  A    between atoms: _405  and  _406
REMARK  175  A    between atoms: _409  and  _411
REMARK  176  A    between atoms: _411  and  _412
REMARK  177  A    between atoms: _411  and  _414
REMARK  178  A    between atoms: _414  and  _415
REMARK  179  A    between atoms: _415  and  _416
REMARK  180  A    between atoms: _419  and  _421
REMARK  181  A    between atoms: _421  and  _422
REMARK  182  A    between atoms: _421  and  _424
REMARK  183  A    between atoms: _424  and  _425
REMARK  184  A    between atoms: _428  and  _430
REMARK  185  A    between atoms: _430  and  _431
REMARK  186  A    between atoms: _430  and  _433
REMARK  187  A    between atoms: _433  and  _434
REMARK  188  A    between atoms: _436  and  _438
REMARK  189  A    between atoms: _438  and  _439
REMARK  190  A    between atoms: _438  and  _441
REMARK  191  A    between atoms: _441  and  _442
REMARK  192  A    between atoms: _444  and  _446
REMARK  193  A    between atoms: _446  and  _447
REMARK  194  A    between atoms: _450  and  _452
REMARK  195  A    between atoms: _452  and  _453
REMARK  196  A    between atoms: _452  and  _455
REMARK  197  A    between atoms: _455  and  _456
REMARK  198  A    between atoms: _459  and  _461
REMARK  199  A    between atoms: _461  and  _462
REMARK  200  A    between atoms: _461  and  _464
REMARK  201  A    between atoms: _467  and  _469
REMARK  202  A    between atoms: _469  and  _470
REMARK  203  A    between atoms: _472  and  _474
REMARK  204  A    between atoms: _474  and  _475
REMARK  205  A    between atoms: _477  and  _479
REMARK  206  A    between atoms: _479  and  _480
REMARK  207  A    between atoms: _479  and  _482
REMARK  208  A    between atoms: _482  and  _483
REMARK  209  A    between atoms: _483  and  _484
REMARK  210  A    between atoms: _489  and  _491
REMARK  211  A    between atoms: _491  and  _492
REMARK  212  A    between atoms: _491  and  _494
REMARK  213  A    between atoms: _494  and  _495
REMARK  214  A    between atoms: _498  and  _500
REMARK  215  A    between atoms: _500  and  _501
REMARK  216  A    between atoms: _500  and  _503
REMARK  217  A    between atoms: _503  and  _504
REMARK  218  A    between atoms: _504  and  _505
REMARK  219  A    between atoms: _505  and  _506
REMARK  220  A    between atoms: _515  and  _517
REMARK  221  A    between atoms: _517  and  _518
REMARK  222  A    between atoms: _517  and  _520
REMARK  223  A    between atoms: _520  and  _521
REMARK  224  A    between atoms: _521  and  _522
REMARK  225  A    between atoms: _525  and  _526
REMARK  226  A    between atoms: _531  and  _533
REMARK  227  A    between atoms: _533  and  _534
REMARK  228  A    between atoms: _533  and  _536
REMARK  229  A    between atoms: _539  and  _541
REMARK  230  A    between atoms: _541  and  _542
REMARK  231  A    between atoms: _541  and  _544
REMARK  232  A    between atoms: _544  and  _545
REMARK  233  A    between atoms: _545  and  _546
REMARK  234  A    between atoms: _552  and  _553
REMARK  235  A    between atoms: _558  and  _560
REMARK  236  A    between atoms: _560  and  _561
REMARK  237  A    between atoms: _560  and  _563
REMARK  238  A    between atoms: _563  and  _564
REMARK  239  A    between atoms: _567  and  _569
REMARK  240  A    between atoms: _569  and  _570
REMARK  241  A    between atoms: _569  and  _572
REMARK  242  A    between atoms: _572  and  _573
REMARK  243  A    between atoms: _573  and  _574
REMARK  244  A    between atoms: _577  and  _579
REMARK  245  A    between atoms: _579  and  _580
REMARK  246  A    between atoms: _579  and  _582
REMARK  247  A    between atoms: _585  and  _587
REMARK  248  A    between atoms: _587  and  _588
REMARK  249  A    between atoms: _591  and  _593
REMARK  250  A    between atoms: _593  and  _594
REMARK  251  A    between atoms: _593  and  _596
REMARK  252  A    between atoms: _596  and  _597
REMARK  253  A    between atoms: _597  and  _598
REMARK  254  A    between atoms: _601  and  _603
REMARK  255  A    between atoms: _603  and  _604
REMARK  256  A    between atoms: _606  and  _608
REMARK  257  A    between atoms: _608  and  _609
REMARK  258  A    between atoms: _608  and  _611
REMARK  259  A    between atoms: _611  and  _612
REMARK                            x       y       z     vdW  Elec       q    Type
REMARK                         _______ _______ _______ _____ _____    ______ ____
ROOT
ATOM      1  O   HOH     1      16.254  67.873  27.968  0.00  0.00    +0.000 OA
ENDROOT
TORSDOF 0
REMARK  Name = ../refined-set-2016/4jne/4jne_pocket.pdb
REMARK  259 active torsions:
REMARK  status: ('A' for Active; 'I' for Inactive)
REMARK    1  A    between atoms: _1  and  _3
REMARK    2  A    between atoms: _3  and  _4
REMARK    3  A    between atoms: _3  and  _6
REMARK    4  A    between atoms: _6  and  _7
REMARK    5  A    between atoms: _10  and  _12
REMARK    6  A    between atoms: _12  and  _13
REMARK    7  A    between atoms: _12  and  _15
REMARK    8  A    between atoms: _15  and  _16
REMARK    9  A    between atoms: _19  and  _21
REMARK   10  A    between atoms: _21  and  _22
REMARK   11  A    between atoms: _24  and  _26
REMARK   12  A    between atoms: _26  and  _27
REMARK   13  A    between atoms: _26  and  _29
REMARK   14  A    between atoms: _29  and  _30
REMARK   15  A    between atoms: _33  and  _35
REMARK   16  A    between atoms: _35  and  _36
REMARK   17  A    between atoms: _35  and  _38
REMARK   18  A    between atoms: _38  and  _39
REMARK   19  A    between atoms: _42  and  _44
REMARK   20  A    between atoms: _44  and  _45
REMARK   21  A    between atoms: _44  and  _47
REMARK   22  A    between atoms: _47  and  _48
REMARK   23  A    between atoms: _53  and  _55
REMARK   24  A    between atoms: _55  and  _56
REMARK   25  A    between atoms: _55  and  _58
REMARK   26  A    between atoms: _58  and  _59
REMARK   27  A    between atoms: _61  and  _63
REMARK   28  A    between atoms: _63  and  _64
REMARK   29  A    between atoms: _63  and  _66
REMARK   30  A    between atoms: _68  and  _70
REMARK   31  A    between atoms: _70  and  _71
REMARK   32  A    between atoms: _70  and  _73
REMARK   33  A    between atoms: _73  and  _74
REMARK   34  A    between atoms: _77  and  _79
REMARK   35  A    between atoms: _79  and  _80
REMARK   36  A    between atoms: _79  and  _82
REMARK   37  A    between atoms: _82  and  _83
REMARK   38  A    between atoms: _87  and  _88
REMARK   39  A    between atoms: _93  and  _95
REMARK   40  A    between atoms: _95  and  _96
REMARK   41  A    between atoms: _95  and  _98
REMARK   42  A    between atoms: _98  and  _99
REMARK   43  A    between atoms: _101  and  _103
REMARK   44  A    between atoms: _103  and  _104
REMARK   45  A    between atoms: _103  and  _106
REMARK   46  A    between atoms: _106  and  _107
REMARK   47  A    between atoms: _107  and  _108
REMARK   48  A    between atoms: _108  and  _109
REMARK   49  A    between atoms: _109  and  _110
REMARK   50  A    between atoms: _114  and  _116
REMARK   51  A    between atoms: _116  and  _117
REMARK   52  A    between atoms: _120  and  _122
REMARK   53  A    between atoms: _122  and  _123
REMARK   54  A    between atoms: _122  and  _125
REMARK   55  A    between atoms: _125  and  _126
REMARK   56  A    between atoms: _126  and  _127
REMARK   57  A    between atoms: _127  and  _128
REMARK   58  A    between atoms: _128  and  _129
REMARK   59  A    between atoms: _133  and  _135
REMARK   60  A    between atoms: _135  and  _136
REMARK   61  A    between atoms: _135  and  _138
REMARK   62  A    between atoms: _138  and  _139
REMARK   63  A    between atoms: _139  and  _140
REMARK   64  A    between atoms: _140  and  _141
REMARK   65  A    between atoms: _150  and  _152
REMARK   66  A    between atoms: _152  and  _153
REMARK   67  A    between atoms: _152  and  _155
REMARK   68  A    between atoms: _155  and  _156
REMARK   69  A    between atoms: _159  and  _161
REMARK   70  A    between atoms: _161  and  _162
REMARK   71  A    between atoms: _161  and  _164
REMARK   72  A    between atoms: _168  and  _169
REMARK   73  A    between atoms: _174  and  _176
REMARK   74  A    between atoms: _176  and  _177
REMARK   75  A    between atoms: _180  and  _182
REMARK   76  A    between atoms: _182  and  _183
REMARK   77  A    between atoms: _182  and  _185
REMARK   78  A    between atoms: _185  and  _186
REMARK   79  A    between atoms: _192  and  _194
REMARK   80  A    between atoms: _194  and  _195
REMARK   81  A    between atoms: _194  and  _197
REMARK   82  A    between atoms: _197  and  _198
REMARK   83  A    between atoms: _198  and  _199
REMARK   84  A    between atoms: _202  and  _204
REMARK   85  A    between atoms: _204  and  _205
REMARK   86  A    between atoms: _204  and  _207
REMARK   87  A    between atoms: _207  and  _208
REMARK   88  A    between atoms: _211  and  _213
REMARK   89  A    between atoms: _213  and  _214
REMARK   90  A    between atoms: _213  and  _216
REMARK   91  A    between atoms: _216  and  _217
REMARK   92  A    between atoms: _220  and  _222
REMARK   93  A    between atoms: _222  and  _223
REMARK   94  A    between atoms: _225  and  _227
REMARK   95  A    between atoms: _227  and  _228
REMARK   96  A    between atoms: _230  and  _232
REMARK   97  A    between atoms: _232  and  _233
REMARK   98  A    between atoms: _235  and  _237
REMARK   99  A    between atoms: _237  and  _238
REMARK  100  A    between atoms: _241  and  _243
REMARK  101  A    between atoms: _243  and  _244
REMARK  102  A    between atoms: _243  and  _246
REMARK  103  A    between atoms: _246  and  _247
REMARK  104  A    between atoms: _253  and  _255
REMARK  105  A    between atoms: _255  and  _256
REMARK  106  A    between atoms: _255  and  _258
REMARK  107  A    between atoms: _258  and  _259
REMARK  108  A    between atoms: _262  and  _264
REMARK  109  A    between atoms: _264  and  _265
REMARK  110  A    between atoms: _264  and  _267
REMARK  111  A    between atoms: _267  and  _268
REMARK  112  A    between atoms: _271  and  _273
REMARK  113  A    between atoms: _273  and  _274
REMARK  114  A    between atoms: _273  and  _276
REMARK  115  A    between atoms: _276  and  _277
REMARK  116  A    between atoms: _280  and  _282
REMARK  117  A    between atoms: _282  and  _283
REMARK  118  A    between atoms: _282  and  _285
REMARK  119  A    between atoms: _285  and  _286
REMARK  120  A    between atoms: _289  and  _291
REMARK  121  A    between atoms: _291  and  _292
REMARK  122  A    between atoms: _294  and  _296
REMARK  123  A    between atoms: _296  and  _297
REMARK  124  A    between atoms: _299  and  _301
REMARK  125  A    between atoms: _301  and  _302
REMARK  126  A    between atoms: _301  and  _304
REMARK  127  A    between atoms: _304  and  _305
REMARK  128  A    between atoms: _305  and  _306
REMARK  129  A    between atoms: _309  and  _311
REMARK  130  A    between atoms: _311  and  _312
REMARK  131  A    between atoms: _311  and  _314
REMARK  132  A    between atoms: _314  and  _315
REMARK  133  A    between atoms: _318  and  _320
REMARK  134  A    between atoms: _320  and  _321
REMARK  135  A    between atoms: _320  and  _323
REMARK  136  A    between atoms: _323  and  _324
REMARK  137  A    between atoms: _330  and  _332
REMARK  138  A    between atoms: _332  and  _333
REMARK  139  A    between atoms: _332  and  _335
REMARK  140  A    between atoms: _335  and  _336
REMARK  141  A    between atoms: _339  and  _341
REMARK  142  A    between atoms: _341  and  _342
REMARK  143  A    between atoms: _341  and  _344
REMARK  144  A    between atoms: _344  and  _345
REMARK  145  A    between atoms: _345  and  _346
REMARK  146  A    between atoms: _346  and  _347
REMARK  147  A    between atoms: _347  and  _348
REMARK  148  A    between atoms: _352  and  _354
REMARK  149  A    between atoms: _354  and  _355
REMARK  150  A    between atoms: _358  and  _360
REMARK  151  A    between atoms: _360  and  _361
REMARK  152  A    between atoms: _360  and  _363
REMARK  153  A    between atoms: _363  and  _364
REMARK  154  A    between atoms: _364  and  _365
REMARK  155  A    between atoms: _368  and  _370
REMARK  156  A    between atoms: _370  and  _371
REMARK  157  A    between atoms: _370  and  _373
REMARK  158  A    between atoms: _373  and  _374
REMARK  159  A    between atoms: _374  and  _375
REMARK  160  A    between atoms: _375  and  _376
REMARK  161  A    between atoms: _376  and  _377
REMARK  162  A    between atoms: _381  and  _383
REMARK  163  A    between atoms: _383  and  _384
REMARK  164  A    between atoms: _387  and  _389
REMARK  165  A    between atoms: _389  and  _390
REMARK  166  A    between atoms: _389  and  _392
REMARK  167  A    between atoms: _392  and  _393
REMARK  168  A    between atoms: _393  and  _394
REMARK  169  A    between atoms: _394  and  _395
REMARK  170  A    between atoms: _395  and  _396
REMARK  171  A    between atoms: _400  and  _402
REMARK  172  A    between atoms: _402  and  _403
REMARK  173  A    between atoms: _402  and  _405
REMARK  174  A    between atoms: _405  and  _406
REMARK  175  A    between atoms: _409  and  _411
REMARK  176  A    between atoms: _411  and  _412
REMARK  177  A    between atoms: _411  and  _414
REMARK  178  A    between atoms: _414  and  _415
REMARK  179  A    between atoms: _415  and  _416
REMARK  180  A    between atoms: _419  and  _421
REMARK  181  A    between atoms: _421  and  _422
REMARK  182  A    between atoms: _421  and  _424
REMARK  183  A    between atoms: _424  and  _425
REMARK  184  A    between atoms: _428  and  _430
REMARK  185  A    between atoms: _430  and  _431
REMARK  186  A    between atoms: _430  and  _433
REMARK  187  A    between atoms: _433  and  _434
REMARK  188  A    between atoms: _436  and  _438
REMARK  189  A    between atoms: _438  and  _439
REMARK  190  A    between atoms: _438  and  _441
REMARK  191  A    between atoms: _441  and  _442
REMARK  192  A    between atoms: _444  and  _446
REMARK  193  A    between atoms: _446  and  _447
REMARK  194  A    between atoms: _450  and  _452
REMARK  195  A    between atoms: _452  and  _453
REMARK  196  A    between atoms: _452  and  _455
REMARK  197  A    between atoms: _455  and  _456
REMARK  198  A    between atoms: _459  and  _461
REMARK  199  A    between atoms: _461  and  _462
REMARK  200  A    between atoms: _461  and  _464
REMARK  201  A    between atoms: _467  and  _469
REMARK  202  A    between atoms: _469  and  _470
REMARK  203  A    between atoms: _472  and  _474
REMARK  204  A    between atoms: _474  and  _475
REMARK  205  A    between atoms: _477  and  _479
REMARK  206  A    between atoms: _479  and  _480
REMARK  207  A    between atoms: _479  and  _482
REMARK  208  A    between atoms: _482  and  _483
REMARK  209  A    between atoms: _483  and  _484
REMARK  210  A    between atoms: _489  and  _491
REMARK  211  A    between atoms: _491  and  _492
REMARK  212  A    between atoms: _491  and  _494
REMARK  213  A    between atoms: _494  and  _495
REMARK  214  A    between atoms: _498  and  _500
REMARK  215  A    between atoms: _500  and  _501
REMARK  216  A    between atoms: _500  and  _503
REMARK  217  A    between atoms: _503  and  _504
REMARK  218  A    between atoms: _504  and  _505
REMARK  219  A    between atoms: _505  and  _506
REMARK  220  A    between atoms: _515  and  _517
REMARK  221  A    between atoms: _517  and  _518
REMARK  222  A    between atoms: _517  and  _520
REMARK  223  A    between atoms: _520  and  _521
REMARK  224  A    between atoms: _521  and  _522
REMARK  225  A    between atoms: _525  and  _526
REMARK  226  A    between atoms: _531  and  _533
REMARK  227  A    between atoms: _533  and  _534
REMARK  228  A    between atoms: _533  and  _536
REMARK  229  A    between atoms: _539  and  _541
REMARK  230  A    between atoms: _541  and  _542
REMARK  231  A    between atoms: _541  and  _544
REMARK  232  A    between atoms: _544  and  _545
REMARK  233  A    between atoms: _545  and  _546
REMARK  234  A    between atoms: _552  and  _553
REMARK  235  A    between atoms: _558  and  _560
REMARK  236  A    between atoms: _560  and  _561
REMARK  237  A    between atoms: _560  and  _563
REMARK  238  A    between atoms: _563  and  _564
REMARK  239  A    between atoms: _567  and  _569
REMARK  240  A    between atoms: _569  and  _570
REMARK  241  A    between atoms: _569  and  _572
REMARK  242  A    between atoms: _572  and  _573
REMARK  243  A    between atoms: _573  and  _574
REMARK  244  A    between atoms: _577  and  _579
REMARK  245  A    between atoms: _579  and  _580
REMARK  246  A    between atoms: _579  and  _582
REMARK  247  A    between atoms: _585  and  _587
REMARK  248  A    between atoms: _587  and  _588
REMARK  249  A    between atoms: _591  and  _593
REMARK  250  A    between atoms: _593  and  _594
REMARK  251  A    between atoms: _593  and  _596
REMARK  252  A    between atoms: _596  and  _597
REMARK  253  A    between atoms: _597  and  _598
REMARK  254  A    between atoms: _601  and  _603
REMARK  255  A    between atoms: _603  and  _604
REMARK  256  A    between atoms: _606  and  _608
REMARK  257  A    between atoms: _608  and  _609
REMARK  258  A    between atoms: _608  and  _611
REMARK  259  A    between atoms: _611  and  _612
REMARK                            x       y       z     vdW  Elec       q    Type
REMARK                         _______ _______ _______ _____ _____    ______ ____
ROOT
ATOM      1  O   HOH     1      23.361  78.850  24.363  0.00  0.00    +0.000 OA
ENDROOT
TORSDOF 0
REMARK  Name = ../refined-set-2016/4jne/4jne_pocket.pdb
REMARK  259 active torsions:
REMARK  status: ('A' for Active; 'I' for Inactive)
REMARK    1  A    between atoms: _1  and  _3
REMARK    2  A    between atoms: _3  and  _4
REMARK    3  A    between atoms: _3  and  _6
REMARK    4  A    between atoms: _6  and  _7
REMARK    5  A    between atoms: _10  and  _12
REMARK    6  A    between atoms: _12  and  _13
REMARK    7  A    between atoms: _12  and  _15
REMARK    8  A    between atoms: _15  and  _16
REMARK    9  A    between atoms: _19  and  _21
REMARK   10  A    between atoms: _21  and  _22
REMARK   11  A    between atoms: _24  and  _26
REMARK   12  A    between atoms: _26  and  _27
REMARK   13  A    between atoms: _26  and  _29
REMARK   14  A    between atoms: _29  and  _30
REMARK   15  A    between atoms: _33  and  _35
REMARK   16  A    between atoms: _35  and  _36
REMARK   17  A    between atoms: _35  and  _38
REMARK   18  A    between atoms: _38  and  _39
REMARK   19  A    between atoms: _42  and  _44
REMARK   20  A    between atoms: _44  and  _45
REMARK   21  A    between atoms: _44  and  _47
REMARK   22  A    between atoms: _47  and  _48
REMARK   23  A    between atoms: _53  and  _55
REMARK   24  A    between atoms: _55  and  _56
REMARK   25  A    between atoms: _55  and  _58
REMARK   26  A    between atoms: _58  and  _59
REMARK   27  A    between atoms: _61  and  _63
REMARK   28  A    between atoms: _63  and  _64
REMARK   29  A    between atoms: _63  and  _66
REMARK   30  A    between atoms: _68  and  _70
REMARK   31  A    between atoms: _70  and  _71
REMARK   32  A    between atoms: _70  and  _73
REMARK   33  A    between atoms: _73  and  _74
REMARK   34  A    between atoms: _77  and  _79
REMARK   35  A    between atoms: _79  and  _80
REMARK   36  A    between atoms: _79  and  _82
REMARK   37  A    between atoms: _82  and  _83
REMARK   38  A    between atoms: _87  and  _88
REMARK   39  A    between atoms: _93  and  _95
REMARK   40  A    between atoms: _95  and  _96
REMARK   41  A    between atoms: _95  and  _98
REMARK   42  A    between atoms: _98  and  _99
REMARK   43  A    between atoms: _101  and  _103
REMARK   44  A    between atoms: _103  and  _104
REMARK   45  A    between atoms: _103  and  _106
REMARK   46  A    between atoms: _106  and  _107
REMARK   47  A    between atoms: _107  and  _108
REMARK   48  A    between atoms: _108  and  _109
REMARK   49  A    between atoms: _109  and  _110
REMARK   50  A    between atoms: _114  and  _116
REMARK   51  A    between atoms: _116  and  _117
REMARK   52  A    between atoms: _120  and  _122
REMARK   53  A    between atoms: _122  and  _123
REMARK   54  A    between atoms: _122  and  _125
REMARK   55  A    between atoms: _125  and  _126
REMARK   56  A    between atoms: _126  and  _127
REMARK   57  A    between atoms: _127  and  _128
REMARK   58  A    between atoms: _128  and  _129
REMARK   59  A    between atoms: _133  and  _135
REMARK   60  A    between atoms: _135  and  _136
REMARK   61  A    between atoms: _135  and  _138
REMARK   62  A    between atoms: _138  and  _139
REMARK   63  A    between atoms: _139  and  _140
REMARK   64  A    between atoms: _140  and  _141
REMARK   65  A    between atoms: _150  and  _152
REMARK   66  A    between atoms: _152  and  _153
REMARK   67  A    between atoms: _152  and  _155
REMARK   68  A    between atoms: _155  and  _156
REMARK   69  A    between atoms: _159  and  _161
REMARK   70  A    between atoms: _161  and  _162
REMARK   71  A    between atoms: _161  and  _164
REMARK   72  A    between atoms: _168  and  _169
REMARK   73  A    between atoms: _174  and  _176
REMARK   74  A    between atoms: _176  and  _177
REMARK   75  A    between atoms: _180  and  _182
REMARK   76  A    between atoms: _182  and  _183
REMARK   77  A    between atoms: _182  and  _185
REMARK   78  A    between atoms: _185  and  _186
REMARK   79  A    between atoms: _192  and  _194
REMARK   80  A    between atoms: _194  and  _195
REMARK   81  A    between atoms: _194  and  _197
REMARK   82  A    between atoms: _197  and  _198
REMARK   83  A    between atoms: _198  and  _199
REMARK   84  A    between atoms: _202  and  _204
REMARK   85  A    between atoms: _204  and  _205
REMARK   86  A    between atoms: _204  and  _207
REMARK   87  A    between atoms: _207  and  _208
REMARK   88  A    between atoms: _211  and  _213
REMARK   89  A    between atoms: _213  and  _214
REMARK   90  A    between atoms: _213  and  _216
REMARK   91  A    between atoms: _216  and  _217
REMARK   92  A    between atoms: _220  and  _222
REMARK   93  A    between atoms: _222  and  _223
REMARK   94  A    between atoms: _225  and  _227
REMARK   95  A    between atoms: _227  and  _228
REMARK   96  A    between atoms: _230  and  _232
REMARK   97  A    between atoms: _232  and  _233
REMARK   98  A    between atoms: _235  and  _237
REMARK   99  A    between atoms: _237  and  _238
REMARK  100  A    between atoms: _241  and  _243
REMARK  101  A    between atoms: _243  and  _244
REMARK  102  A    between atoms: _243  and  _246
REMARK  103  A    between atoms: _246  and  _247
REMARK  104  A    between atoms: _253  and  _255
REMARK  105  A    between atoms: _255  and  _256
REMARK  106  A    between atoms: _255  and  _258
REMARK  107  A    between atoms: _258  and  _259
REMARK  108  A    between atoms: _262  and  _264
REMARK  109  A    between atoms: _264  and  _265
REMARK  110  A    between atoms: _264  and  _267
REMARK  111  A    between atoms: _267  and  _268
REMARK  112  A    between atoms: _271  and  _273
REMARK  113  A    between atoms: _273  and  _274
REMARK  114  A    between atoms: _273  and  _276
REMARK  115  A    between atoms: _276  and  _277
REMARK  116  A    between atoms: _280  and  _282
REMARK  117  A    between atoms: _282  and  _283
REMARK  118  A    between atoms: _282  and  _285
REMARK  119  A    between atoms: _285  and  _286
REMARK  120  A    between atoms: _289  and  _291
REMARK  121  A    between atoms: _291  and  _292
REMARK  122  A    between atoms: _294  and  _296
REMARK  123  A    between atoms: _296  and  _297
REMARK  124  A    between atoms: _299  and  _301
REMARK  125  A    between atoms: _301  and  _302
REMARK  126  A    between atoms: _301  and  _304
REMARK  127  A    between atoms: _304  and  _305
REMARK  128  A    between atoms: _305  and  _306
REMARK  129  A    between atoms: _309  and  _311
REMARK  130  A    between atoms: _311  and  _312
REMARK  131  A    between atoms: _311  and  _314
REMARK  132  A    between atoms: _314  and  _315
REMARK  133  A    between atoms: _318  and  _320
REMARK  134  A    between atoms: _320  and  _321
REMARK  135  A    between atoms: _320  and  _323
REMARK  136  A    between atoms: _323  and  _324
REMARK  137  A    between atoms: _330  and  _332
REMARK  138  A    between atoms: _332  and  _333
REMARK  139  A    between atoms: _332  and  _335
REMARK  140  A    between atoms: _335  and  _336
REMARK  141  A    between atoms: _339  and  _341
REMARK  142  A    between atoms: _341  and  _342
REMARK  143  A    between atoms: _341  and  _344
REMARK  144  A    between atoms: _344  and  _345
REMARK  145  A    between atoms: _345  and  _346
REMARK  146  A    between atoms: _346  and  _347
REMARK  147  A    between atoms: _347  and  _348
REMARK  148  A    between atoms: _352  and  _354
REMARK  149  A    between atoms: _354  and  _355
REMARK  150  A    between atoms: _358  and  _360
REMARK  151  A    between atoms: _360  and  _361
REMARK  152  A    between atoms: _360  and  _363
REMARK  153  A    between atoms: _363  and  _364
REMARK  154  A    between atoms: _364  and  _365
REMARK  155  A    between atoms: _368  and  _370
REMARK  156  A    between atoms: _370  and  _371
REMARK  157  A    between atoms: _370  and  _373
REMARK  158  A    between atoms: _373  and  _374
REMARK  159  A    between atoms: _374  and  _375
REMARK  160  A    between atoms: _375  and  _376
REMARK  161  A    between atoms: _376  and  _377
REMARK  162  A    between atoms: _381  and  _383
REMARK  163  A    between atoms: _383  and  _384
REMARK  164  A    between atoms: _387  and  _389
REMARK  165  A    between atoms: _389  and  _390
REMARK  166  A    between atoms: _389  and  _392
REMARK  167  A    between atoms: _392  and  _393
REMARK  168  A    between atoms: _393  and  _394
REMARK  169  A    between atoms: _394  and  _395
REMARK  170  A    between atoms: _395  and  _396
REMARK  171  A    between atoms: _400  and  _402
REMARK  172  A    between atoms: _402  and  _403
REMARK  173  A    between atoms: _402  and  _405
REMARK  174  A    between atoms: _405  and  _406
REMARK  175  A    between atoms: _409  and  _411
REMARK  176  A    between atoms: _411  and  _412
REMARK  177  A    between atoms: _411  and  _414
REMARK  178  A    between atoms: _414  and  _415
REMARK  179  A    between atoms: _415  and  _416
REMARK  180  A    between atoms: _419  and  _421
REMARK  181  A    between atoms: _421  and  _422
REMARK  182  A    between atoms: _421  and  _424
REMARK  183  A    between atoms: _424  and  _425
REMARK  184  A    between atoms: _428  and  _430
REMARK  185  A    between atoms: _430  and  _431
REMARK  186  A    between atoms: _430  and  _433
REMARK  187  A    between atoms: _433  and  _434
REMARK  188  A    between atoms: _436  and  _438
REMARK  189  A    between atoms: _438  and  _439
REMARK  190  A    between atoms: _438  and  _441
REMARK  191  A    between atoms: _441  and  _442
REMARK  192  A    between atoms: _444  and  _446
REMARK  193  A    between atoms: _446  and  _447
REMARK  194  A    between atoms: _450  and  _452
REMARK  195  A    between atoms: _452  and  _453
REMARK  196  A    between atoms: _452  and  _455
REMARK  197  A    between atoms: _455  and  _456
REMARK  198  A    between atoms: _459  and  _461
REMARK  199  A    between atoms: _461  and  _462
REMARK  200  A    between atoms: _461  and  _464
REMARK  201  A    between atoms: _467  and  _469
REMARK  202  A    between atoms: _469  and  _470
REMARK  203  A    between atoms: _472  and  _474
REMARK  204  A    between atoms: _474  and  _475
REMARK  205  A    between atoms: _477  and  _479
REMARK  206  A    between atoms: _479  and  _480
REMARK  207  A    between atoms: _479  and  _482
REMARK  208  A    between atoms: _482  and  _483
REMARK  209  A    between atoms: _483  and  _484
REMARK  210  A    between atoms: _489  and  _491
REMARK  211  A    between atoms: _491  and  _492
REMARK  212  A    between atoms: _491  and  _494
REMARK  213  A    between atoms: _494  and  _495
REMARK  214  A    between atoms: _498  and  _500
REMARK  215  A    between atoms: _500  and  _501
REMARK  216  A    between atoms: _500  and  _503
REMARK  217  A    between atoms: _503  and  _504
REMARK  218  A    between atoms: _504  and  _505
REMARK  219  A    between atoms: _505  and  _506
REMARK  220  A    between atoms: _515  and  _517
REMARK  221  A    between atoms: _517  and  _518
REMARK  222  A    between atoms: _517  and  _520
REMARK  223  A    between atoms: _520  and  _521
REMARK  224  A    between atoms: _521  and  _522
REMARK  225  A    between atoms: _525  and  _526
REMARK  226  A    between atoms: _531  and  _533
REMARK  227  A    between atoms: _533  and  _534
REMARK  228  A    between atoms: _533  and  _536
REMARK  229  A    between atoms: _539  and  _541
REMARK  230  A    between atoms: _541  and  _542
REMARK  231  A    between atoms: _541  and  _544
REMARK  232  A    between atoms: _544  and  _545
REMARK  233  A    between atoms: _545  and  _546
REMARK  234  A    between atoms: _552  and  _553
REMARK  235  A    between atoms: _558  and  _560
REMARK  236  A    between atoms: _560  and  _561
REMARK  237  A    between atoms: _560  and  _563
REMARK  238  A    between atoms: _563  and  _564
REMARK  239  A    between atoms: _567  and  _569
REMARK  240  A    between atoms: _569  and  _570
REMARK  241  A    between atoms: _569  and  _572
REMARK  242  A    between atoms: _572  and  _573
REMARK  243  A    between atoms: _573  and  _574
REMARK  244  A    between atoms: _577  and  _579
REMARK  245  A    between atoms: _579  and  _580
REMARK  246  A    between atoms: _579  and  _582
REMARK  247  A    between atoms: _585  and  _587
REMARK  248  A    between atoms: _587  and  _588
REMARK  249  A    between atoms: _591  and  _593
REMARK  250  A    between atoms: _593  and  _594
REMARK  251  A    between atoms: _593  and  _596
REMARK  252  A    between atoms: _596  and  _597
REMARK  253  A    between atoms: _597  and  _598
REMARK  254  A    between atoms: _601  and  _603
REMARK  255  A    between atoms: _603  and  _604
REMARK  256  A    between atoms: _606  and  _608
REMARK  257  A    between atoms: _608  and  _609
REMARK  258  A    between atoms: _608  and  _611
REMARK  259  A    between atoms: _611  and  _612
REMARK                            x       y       z     vdW  Elec       q    Type
REMARK                         _______ _______ _______ _____ _____    ______ ____
ROOT
ATOM      1  O   HOH     1      26.194  80.068  27.509  0.00  0.00    +0.000 OA
ENDROOT
TORSDOF 0
REMARK  Name = ../refined-set-2016/4jne/4jne_pocket.pdb
REMARK  259 active torsions:
REMARK  status: ('A' for Active; 'I' for Inactive)
REMARK    1  A    between atoms: _1  and  _3
REMARK    2  A    between atoms: _3  and  _4
REMARK    3  A    between atoms: _3  and  _6
REMARK    4  A    between atoms: _6  and  _7
REMARK    5  A    between atoms: _10  and  _12
REMARK    6  A    between atoms: _12  and  _13
REMARK    7  A    between atoms: _12  and  _15
REMARK    8  A    between atoms: _15  and  _16
REMARK    9  A    between atoms: _19  and  _21
REMARK   10  A    between atoms: _21  and  _22
REMARK   11  A    between atoms: _24  and  _26
REMARK   12  A    between atoms: _26  and  _27
REMARK   13  A    between atoms: _26  and  _29
REMARK   14  A    between atoms: _29  and  _30
REMARK   15  A    between atoms: _33  and  _35
REMARK   16  A    between atoms: _35  and  _36
REMARK   17  A    between atoms: _35  and  _38
REMARK   18  A    between atoms: _38  and  _39
REMARK   19  A    between atoms: _42  and  _44
REMARK   20  A    between atoms: _44  and  _45
REMARK   21  A    between atoms: _44  and  _47
REMARK   22  A    between atoms: _47  and  _48
REMARK   23  A    between atoms: _53  and  _55
REMARK   24  A    between atoms: _55  and  _56
REMARK   25  A    between atoms: _55  and  _58
REMARK   26  A    between atoms: _58  and  _59
REMARK   27  A    between atoms: _61  and  _63
REMARK   28  A    between atoms: _63  and  _64
REMARK   29  A    between atoms: _63  and  _66
REMARK   30  A    between atoms: _68  and  _70
REMARK   31  A    between atoms: _70  and  _71
REMARK   32  A    between atoms: _70  and  _73
REMARK   33  A    between atoms: _73  and  _74
REMARK   34  A    between atoms: _77  and  _79
REMARK   35  A    between atoms: _79  and  _80
REMARK   36  A    between atoms: _79  and  _82
REMARK   37  A    between atoms: _82  and  _83
REMARK   38  A    between atoms: _87  and  _88
REMARK   39  A    between atoms: _93  and  _95
REMARK   40  A    between atoms: _95  and  _96
REMARK   41  A    between atoms: _95  and  _98
REMARK   42  A    between atoms: _98  and  _99
REMARK   43  A    between atoms: _101  and  _103
REMARK   44  A    between atoms: _103  and  _104
REMARK   45  A    between atoms: _103  and  _106
REMARK   46  A    between atoms: _106  and  _107
REMARK   47  A    between atoms: _107  and  _108
REMARK   48  A    between atoms: _108  and  _109
REMARK   49  A    between atoms: _109  and  _110
REMARK   50  A    between atoms: _114  and  _116
REMARK   51  A    between atoms: _116  and  _117
REMARK   52  A    between atoms: _120  and  _122
REMARK   53  A    between atoms: _122  and  _123
REMARK   54  A    between atoms: _122  and  _125
REMARK   55  A    between atoms: _125  and  _126
REMARK   56  A    between atoms: _126  and  _127
REMARK   57  A    between atoms: _127  and  _128
REMARK   58  A    between atoms: _128  and  _129
REMARK   59  A    between atoms: _133  and  _135
REMARK   60  A    between atoms: _135  and  _136
REMARK   61  A    between atoms: _135  and  _138
REMARK   62  A    between atoms: _138  and  _139
REMARK   63  A    between atoms: _139  and  _140
REMARK   64  A    between atoms: _140  and  _141
REMARK   65  A    between atoms: _150  and  _152
REMARK   66  A    between atoms: _152  and  _153
REMARK   67  A    between atoms: _152  and  _155
REMARK   68  A    between atoms: _155  and  _156
REMARK   69  A    between atoms: _159  and  _161
REMARK   70  A    between atoms: _161  and  _162
REMARK   71  A    between atoms: _161  and  _164
REMARK   72  A    between atoms: _168  and  _169
REMARK   73  A    between atoms: _174  and  _176
REMARK   74  A    between atoms: _176  and  _177
REMARK   75  A    between atoms: _180  and  _182
REMARK   76  A    between atoms: _182  and  _183
REMARK   77  A    between atoms: _182  and  _185
REMARK   78  A    between atoms: _185  and  _186
REMARK   79  A    between atoms: _192  and  _194
REMARK   80  A    between atoms: _194  and  _195
REMARK   81  A    between atoms: _194  and  _197
REMARK   82  A    between atoms: _197  and  _198
REMARK   83  A    between atoms: _198  and  _199
REMARK   84  A    between atoms: _202  and  _204
REMARK   85  A    between atoms: _204  and  _205
REMARK   86  A    between atoms: _204  and  _207
REMARK   87  A    between atoms: _207  and  _208
REMARK   88  A    between atoms: _211  and  _213
REMARK   89  A    between atoms: _213  and  _214
REMARK   90  A    between atoms: _213  and  _216
REMARK   91  A    between atoms: _216  and  _217
REMARK   92  A    between atoms: _220  and  _222
REMARK   93  A    between atoms: _222  and  _223
REMARK   94  A    between atoms: _225  and  _227
REMARK   95  A    between atoms: _227  and  _228
REMARK   96  A    between atoms: _230  and  _232
REMARK   97  A    between atoms: _232  and  _233
REMARK   98  A    between atoms: _235  and  _237
REMARK   99  A    between atoms: _237  and  _238
REMARK  100  A    between atoms: _241  and  _243
REMARK  101  A    between atoms: _243  and  _244
REMARK  102  A    between atoms: _243  and  _246
REMARK  103  A    between atoms: _246  and  _247
REMARK  104  A    between atoms: _253  and  _255
REMARK  105  A    between atoms: _255  and  _256
REMARK  106  A    between atoms: _255  and  _258
REMARK  107  A    between atoms: _258  and  _259
REMARK  108  A    between atoms: _262  and  _264
REMARK  109  A    between atoms: _264  and  _265
REMARK  110  A    between atoms: _264  and  _267
REMARK  111  A    between atoms: _267  and  _268
REMARK  112  A    between atoms: _271  and  _273
REMARK  113  A    between atoms: _273  and  _274
REMARK  114  A    between atoms: _273  and  _276
REMARK  115  A    between atoms: _276  and  _277
REMARK  116  A    between atoms: _280  and  _282
REMARK  117  A    between atoms: _282  and  _283
REMARK  118  A    between atoms: _282  and  _285
REMARK  119  A    between atoms: _285  and  _286
REMARK  120  A    between atoms: _289  and  _291
REMARK  121  A    between atoms: _291  and  _292
REMARK  122  A    between atoms: _294  and  _296
REMARK  123  A    between atoms: _296  and  _297
REMARK  124  A    between atoms: _299  and  _301
REMARK  125  A    between atoms: _301  and  _302
REMARK  126  A    between atoms: _301  and  _304
REMARK  127  A    between atoms: _304  and  _305
REMARK  128  A    between atoms: _305  and  _306
REMARK  129  A    between atoms: _309  and  _311
REMARK  130  A    between atoms: _311  and  _312
REMARK  131  A    between atoms: _311  and  _314
REMARK  132  A    between atoms: _314  and  _315
REMARK  133  A    between atoms: _318  and  _320
REMARK  134  A    between atoms: _320  and  _321
REMARK  135  A    between atoms: _320  and  _323
REMARK  136  A    between atoms: _323  and  _324
REMARK  137  A    between atoms: _330  and  _332
REMARK  138  A    between atoms: _332  and  _333
REMARK  139  A    between atoms: _332  and  _335
REMARK  140  A    between atoms: _335  and  _336
REMARK  141  A    between atoms: _339  and  _341
REMARK  142  A    between atoms: _341  and  _342
REMARK  143  A    between atoms: _341  and  _344
REMARK  144  A    between atoms: _344  and  _345
REMARK  145  A    between atoms: _345  and  _346
REMARK  146  A    between atoms: _346  and  _347
REMARK  147  A    between atoms: _347  and  _348
REMARK  148  A    between atoms: _352  and  _354
REMARK  149  A    between atoms: _354  and  _355
REMARK  150  A    between atoms: _358  and  _360
REMARK  151  A    between atoms: _360  and  _361
REMARK  152  A    between atoms: _360  and  _363
REMARK  153  A    between atoms: _363  and  _364
REMARK  154  A    between atoms: _364  and  _365
REMARK  155  A    between atoms: _368  and  _370
REMARK  156  A    between atoms: _370  and  _371
REMARK  157  A    between atoms: _370  and  _373
REMARK  158  A    between atoms: _373  and  _374
REMARK  159  A    between atoms: _374  and  _375
REMARK  160  A    between atoms: _375  and  _376
REMARK  161  A    between atoms: _376  and  _377
REMARK  162  A    between atoms: _381  and  _383
REMARK  163  A    between atoms: _383  and  _384
REMARK  164  A    between atoms: _387  and  _389
REMARK  165  A    between atoms: _389  and  _390
REMARK  166  A    between atoms: _389  and  _392
REMARK  167  A    between atoms: _392  and  _393
REMARK  168  A    between atoms: _393  and  _394
REMARK  169  A    between atoms: _394  and  _395
REMARK  170  A    between atoms: _395  and  _396
REMARK  171  A    between atoms: _400  and  _402
REMARK  172  A    between atoms: _402  and  _403
REMARK  173  A    between atoms: _402  and  _405
REMARK  174  A    between atoms: _405  and  _406
REMARK  175  A    between atoms: _409  and  _411
REMARK  176  A    between atoms: _411  and  _412
REMARK  177  A    between atoms: _411  and  _414
REMARK  178  A    between atoms: _414  and  _415
REMARK  179  A    between atoms: _415  and  _416
REMARK  180  A    between atoms: _419  and  _421
REMARK  181  A    between atoms: _421  and  _422
REMARK  182  A    between atoms: _421  and  _424
REMARK  183  A    between atoms: _424  and  _425
REMARK  184  A    between atoms: _428  and  _430
REMARK  185  A    between atoms: _430  and  _431
REMARK  186  A    between atoms: _430  and  _433
REMARK  187  A    between atoms: _433  and  _434
REMARK  188  A    between atoms: _436  and  _438
REMARK  189  A    between atoms: _438  and  _439
REMARK  190  A    between atoms: _438  and  _441
REMARK  191  A    between atoms: _441  and  _442
REMARK  192  A    between atoms: _444  and  _446
REMARK  193  A    between atoms: _446  and  _447
REMARK  194  A    between atoms: _450  and  _452
REMARK  195  A    between atoms: _452  and  _453
REMARK  196  A    between atoms: _452  and  _455
REMARK  197  A    between atoms: _455  and  _456
REMARK  198  A    between atoms: _459  and  _461
REMARK  199  A    between atoms: _461  and  _462
REMARK  200  A    between atoms: _461  and  _464
REMARK  201  A    between atoms: _467  and  _469
REMARK  202  A    between atoms: _469  and  _470
REMARK  203  A    between atoms: _472  and  _474
REMARK  204  A    between atoms: _474  and  _475
REMARK  205  A    between atoms: _477  and  _479
REMARK  206  A    between atoms: _479  and  _480
REMARK  207  A    between atoms: _479  and  _482
REMARK  208  A    between atoms: _482  and  _483
REMARK  209  A    between atoms: _483  and  _484
REMARK  210  A    between atoms: _489  and  _491
REMARK  211  A    between atoms: _491  and  _492
REMARK  212  A    between atoms: _491  and  _494
REMARK  213  A    between atoms: _494  and  _495
REMARK  214  A    between atoms: _498  and  _500
REMARK  215  A    between atoms: _500  and  _501
REMARK  216  A    between atoms: _500  and  _503
REMARK  217  A    between atoms: _503  and  _504
REMARK  218  A    between atoms: _504  and  _505
REMARK  219  A    between atoms: _505  and  _506
REMARK  220  A    between atoms: _515  and  _517
REMARK  221  A    between atoms: _517  and  _518
REMARK  222  A    between atoms: _517  and  _520
REMARK  223  A    between atoms: _520  and  _521
REMARK  224  A    between atoms: _521  and  _522
REMARK  225  A    between atoms: _525  and  _526
REMARK  226  A    between atoms: _531  and  _533
REMARK  227  A    between atoms: _533  and  _534
REMARK  228  A    between atoms: _533  and  _536
REMARK  229  A    between atoms: _539  and  _541
REMARK  230  A    between atoms: _541  and  _542
REMARK  231  A    between atoms: _541  and  _544
REMARK  232  A    between atoms: _544  and  _545
REMARK  233  A    between atoms: _545  and  _546
REMARK  234  A    between atoms: _552  and  _553
REMARK  235  A    between atoms: _558  and  _560
REMARK  236  A    between atoms: _560  and  _561
REMARK  237  A    between atoms: _560  and  _563
REMARK  238  A    between atoms: _563  and  _564
REMARK  239  A    between atoms: _567  and  _569
REMARK  240  A    between atoms: _569  and  _570
REMARK  241  A    between atoms: _569  and  _572
REMARK  242  A    between atoms: _572  and  _573
REMARK  243  A    between atoms: _573  and  _574
REMARK  244  A    between atoms: _577  and  _579
REMARK  245  A    between atoms: _579  and  _580
REMARK  246  A    between atoms: _579  and  _582
REMARK  247  A    between atoms: _585  and  _587
REMARK  248  A    between atoms: _587  and  _588
REMARK  249  A    between atoms: _591  and  _593
REMARK  250  A    between atoms: _593  and  _594
REMARK  251  A    between atoms: _593  and  _596
REMARK  252  A    between atoms: _596  and  _597
REMARK  253  A    between atoms: _597  and  _598
REMARK  254  A    between atoms: _601  and  _603
REMARK  255  A    between atoms: _603  and  _604
REMARK  256  A    between atoms: _606  and  _608
REMARK  257  A    between atoms: _608  and  _609
REMARK  258  A    between atoms: _608  and  _611
REMARK  259  A    between atoms: _611  and  _612
REMARK                            x       y       z     vdW  Elec       q    Type
REMARK                         _______ _______ _______ _____ _____    ______ ____
ROOT
ATOM      1  O   HOH     1      23.553  79.808  27.409  0.00  0.00    +0.000 OA
ENDROOT
TORSDOF 0
REMARK  Name = ../refined-set-2016/4jne/4jne_pocket.pdb
REMARK  259 active torsions:
REMARK  status: ('A' for Active; 'I' for Inactive)
REMARK    1  A    between atoms: _1  and  _3
REMARK    2  A    between atoms: _3  and  _4
REMARK    3  A    between atoms: _3  and  _6
REMARK    4  A    between atoms: _6  and  _7
REMARK    5  A    between atoms: _10  and  _12
REMARK    6  A    between atoms: _12  and  _13
REMARK    7  A    between atoms: _12  and  _15
REMARK    8  A    between atoms: _15  and  _16
REMARK    9  A    between atoms: _19  and  _21
REMARK   10  A    between atoms: _21  and  _22
REMARK   11  A    between atoms: _24  and  _26
REMARK   12  A    between atoms: _26  and  _27
REMARK   13  A    between atoms: _26  and  _29
REMARK   14  A    between atoms: _29  and  _30
REMARK   15  A    between atoms: _33  and  _35
REMARK   16  A    between atoms: _35  and  _36
REMARK   17  A    between atoms: _35  and  _38
REMARK   18  A    between atoms: _38  and  _39
REMARK   19  A    between atoms: _42  and  _44
REMARK   20  A    between atoms: _44  and  _45
REMARK   21  A    between atoms: _44  and  _47
REMARK   22  A    between atoms: _47  and  _48
REMARK   23  A    between atoms: _53  and  _55
REMARK   24  A    between atoms: _55  and  _56
REMARK   25  A    between atoms: _55  and  _58
REMARK   26  A    between atoms: _58  and  _59
REMARK   27  A    between atoms: _61  and  _63
REMARK   28  A    between atoms: _63  and  _64
REMARK   29  A    between atoms: _63  and  _66
REMARK   30  A    between atoms: _68  and  _70
REMARK   31  A    between atoms: _70  and  _71
REMARK   32  A    between atoms: _70  and  _73
REMARK   33  A    between atoms: _73  and  _74
REMARK   34  A    between atoms: _77  and  _79
REMARK   35  A    between atoms: _79  and  _80
REMARK   36  A    between atoms: _79  and  _82
REMARK   37  A    between atoms: _82  and  _83
REMARK   38  A    between atoms: _87  and  _88
REMARK   39  A    between atoms: _93  and  _95
REMARK   40  A    between atoms: _95  and  _96
REMARK   41  A    between atoms: _95  and  _98
REMARK   42  A    between atoms: _98  and  _99
REMARK   43  A    between atoms: _101  and  _103
REMARK   44  A    between atoms: _103  and  _104
REMARK   45  A    between atoms: _103  and  _106
REMARK   46  A    between atoms: _106  and  _107
REMARK   47  A    between atoms: _107  and  _108
REMARK   48  A    between atoms: _108  and  _109
REMARK   49  A    between atoms: _109  and  _110
REMARK   50  A    between atoms: _114  and  _116
REMARK   51  A    between atoms: _116  and  _117
REMARK   52  A    between atoms: _120  and  _122
REMARK   53  A    between atoms: _122  and  _123
REMARK   54  A    between atoms: _122  and  _125
REMARK   55  A    between atoms: _125  and  _126
REMARK   56  A    between atoms: _126  and  _127
REMARK   57  A    between atoms: _127  and  _128
REMARK   58  A    between atoms: _128  and  _129
REMARK   59  A    between atoms: _133  and  _135
REMARK   60  A    between atoms: _135  and  _136
REMARK   61  A    between atoms: _135  and  _138
REMARK   62  A    between atoms: _138  and  _139
REMARK   63  A    between atoms: _139  and  _140
REMARK   64  A    between atoms: _140  and  _141
REMARK   65  A    between atoms: _150  and  _152
REMARK   66  A    between atoms: _152  and  _153
REMARK   67  A    between atoms: _152  and  _155
REMARK   68  A    between atoms: _155  and  _156
REMARK   69  A    between atoms: _159  and  _161
REMARK   70  A    between atoms: _161  and  _162
REMARK   71  A    between atoms: _161  and  _164
REMARK   72  A    between atoms: _168  and  _169
REMARK   73  A    between atoms: _174  and  _176
REMARK   74  A    between atoms: _176  and  _177
REMARK   75  A    between atoms: _180  and  _182
REMARK   76  A    between atoms: _182  and  _183
REMARK   77  A    between atoms: _182  and  _185
REMARK   78  A    between atoms: _185  and  _186
REMARK   79  A    between atoms: _192  and  _194
REMARK   80  A    between atoms: _194  and  _195
REMARK   81  A    between atoms: _194  and  _197
REMARK   82  A    between atoms: _197  and  _198
REMARK   83  A    between atoms: _198  and  _199
REMARK   84  A    between atoms: _202  and  _204
REMARK   85  A    between atoms: _204  and  _205
REMARK   86  A    between atoms: _204  and  _207
REMARK   87  A    between atoms: _207  and  _208
REMARK   88  A    between atoms: _211  and  _213
REMARK   89  A    between atoms: _213  and  _214
REMARK   90  A    between atoms: _213  and  _216
REMARK   91  A    between atoms: _216  and  _217
REMARK   92  A    between atoms: _220  and  _222
REMARK   93  A    between atoms: _222  and  _223
REMARK   94  A    between atoms: _225  and  _227
REMARK   95  A    between atoms: _227  and  _228
REMARK   96  A    between atoms: _230  and  _232
REMARK   97  A    between atoms: _232  and  _233
REMARK   98  A    between atoms: _235  and  _237
REMARK   99  A    between atoms: _237  and  _238
REMARK  100  A    between atoms: _241  and  _243
REMARK  101  A    between atoms: _243  and  _244
REMARK  102  A    between atoms: _243  and  _246
REMARK  103  A    between atoms: _246  and  _247
REMARK  104  A    between atoms: _253  and  _255
REMARK  105  A    between atoms: _255  and  _256
REMARK  106  A    between atoms: _255  and  _258
REMARK  107  A    between atoms: _258  and  _259
REMARK  108  A    between atoms: _262  and  _264
REMARK  109  A    between atoms: _264  and  _265
REMARK  110  A    between atoms: _264  and  _267
REMARK  111  A    between atoms: _267  and  _268
REMARK  112  A    between atoms: _271  and  _273
REMARK  113  A    between atoms: _273  and  _274
REMARK  114  A    between atoms: _273  and  _276
REMARK  115  A    between atoms: _276  and  _277
REMARK  116  A    between atoms: _280  and  _282
REMARK  117  A    between atoms: _282  and  _283
REMARK  118  A    between atoms: _282  and  _285
REMARK  119  A    between atoms: _285  and  _286
REMARK  120  A    between atoms: _289  and  _291
REMARK  121  A    between atoms: _291  and  _292
REMARK  122  A    between atoms: _294  and  _296
REMARK  123  A    between atoms: _296  and  _297
REMARK  124  A    between atoms: _299  and  _301
REMARK  125  A    between atoms: _301  and  _302
REMARK  126  A    between atoms: _301  and  _304
REMARK  127  A    between atoms: _304  and  _305
REMARK  128  A    between atoms: _305  and  _306
REMARK  129  A    between atoms: _309  and  _311
REMARK  130  A    between atoms: _311  and  _312
REMARK  131  A    between atoms: _311  and  _314
REMARK  132  A    between atoms: _314  and  _315
REMARK  133  A    between atoms: _318  and  _320
REMARK  134  A    between atoms: _320  and  _321
REMARK  135  A    between atoms: _320  and  _323
REMARK  136  A    between atoms: _323  and  _324
REMARK  137  A    between atoms: _330  and  _332
REMARK  138  A    between atoms: _332  and  _333
REMARK  139  A    between atoms: _332  and  _335
REMARK  140  A    between atoms: _335  and  _336
REMARK  141  A    between atoms: _339  and  _341
REMARK  142  A    between atoms: _341  and  _342
REMARK  143  A    between atoms: _341  and  _344
REMARK  144  A    between atoms: _344  and  _345
REMARK  145  A    between atoms: _345  and  _346
REMARK  146  A    between atoms: _346  and  _347
REMARK  147  A    between atoms: _347  and  _348
REMARK  148  A    between atoms: _352  and  _354
REMARK  149  A    between atoms: _354  and  _355
REMARK  150  A    between atoms: _358  and  _360
REMARK  151  A    between atoms: _360  and  _361
REMARK  152  A    between atoms: _360  and  _363
REMARK  153  A    between atoms: _363  and  _364
REMARK  154  A    between atoms: _364  and  _365
REMARK  155  A    between atoms: _368  and  _370
REMARK  156  A    between atoms: _370  and  _371
REMARK  157  A    between atoms: _370  and  _373
REMARK  158  A    between atoms: _373  and  _374
REMARK  159  A    between atoms: _374  and  _375
REMARK  160  A    between atoms: _375  and  _376
REMARK  161  A    between atoms: _376  and  _377
REMARK  162  A    between atoms: _381  and  _383
REMARK  163  A    between atoms: _383  and  _384
REMARK  164  A    between atoms: _387  and  _389
REMARK  165  A    between atoms: _389  and  _390
REMARK  166  A    between atoms: _389  and  _392
REMARK  167  A    between atoms: _392  and  _393
REMARK  168  A    between atoms: _393  and  _394
REMARK  169  A    between atoms: _394  and  _395
REMARK  170  A    between atoms: _395  and  _396
REMARK  171  A    between atoms: _400  and  _402
REMARK  172  A    between atoms: _402  and  _403
REMARK  173  A    between atoms: _402  and  _405
REMARK  174  A    between atoms: _405  and  _406
REMARK  175  A    between atoms: _409  and  _411
REMARK  176  A    between atoms: _411  and  _412
REMARK  177  A    between atoms: _411  and  _414
REMARK  178  A    between atoms: _414  and  _415
REMARK  179  A    between atoms: _415  and  _416
REMARK  180  A    between atoms: _419  and  _421
REMARK  181  A    between atoms: _421  and  _422
REMARK  182  A    between atoms: _421  and  _424
REMARK  183  A    between atoms: _424  and  _425
REMARK  184  A    between atoms: _428  and  _430
REMARK  185  A    between atoms: _430  and  _431
REMARK  186  A    between atoms: _430  and  _433
REMARK  187  A    between atoms: _433  and  _434
REMARK  188  A    between atoms: _436  and  _438
REMARK  189  A    between atoms: _438  and  _439
REMARK  190  A    between atoms: _438  and  _441
REMARK  191  A    between atoms: _441  and  _442
REMARK  192  A    between atoms: _444  and  _446
REMARK  193  A    between atoms: _446  and  _447
REMARK  194  A    between atoms: _450  and  _452
REMARK  195  A    between atoms: _452  and  _453
REMARK  196  A    between atoms: _452  and  _455
REMARK  197  A    between atoms: _455  and  _456
REMARK  198  A    between atoms: _459  and  _461
REMARK  199  A    between atoms: _461  and  _462
REMARK  200  A    between atoms: _461  and  _464
REMARK  201  A    between atoms: _467  and  _469
REMARK  202  A    between atoms: _469  and  _470
REMARK  203  A    between atoms: _472  and  _474
REMARK  204  A    between atoms: _474  and  _475
REMARK  205  A    between atoms: _477  and  _479
REMARK  206  A    between atoms: _479  and  _480
REMARK  207  A    between atoms: _479  and  _482
REMARK  208  A    between atoms: _482  and  _483
REMARK  209  A    between atoms: _483  and  _484
REMARK  210  A    between atoms: _489  and  _491
REMARK  211  A    between atoms: _491  and  _492
REMARK  212  A    between atoms: _491  and  _494
REMARK  213  A    between atoms: _494  and  _495
REMARK  214  A    between atoms: _498  and  _500
REMARK  215  A    between atoms: _500  and  _501
REMARK  216  A    between atoms: _500  and  _503
REMARK  217  A    between atoms: _503  and  _504
REMARK  218  A    between atoms: _504  and  _505
REMARK  219  A    between atoms: _505  and  _506
REMARK  220  A    between atoms: _515  and  _517
REMARK  221  A    between atoms: _517  and  _518
REMARK  222  A    between atoms: _517  and  _520
REMARK  223  A    between atoms: _520  and  _521
REMARK  224  A    between atoms: _521  and  _522
REMARK  225  A    between atoms: _525  and  _526
REMARK  226  A    between atoms: _531  and  _533
REMARK  227  A    between atoms: _533  and  _534
REMARK  228  A    between atoms: _533  and  _536
REMARK  229  A    between atoms: _539  and  _541
REMARK  230  A    between atoms: _541  and  _542
REMARK  231  A    between atoms: _541  and  _544
REMARK  232  A    between atoms: _544  and  _545
REMARK  233  A    between atoms: _545  and  _546
REMARK  234  A    between atoms: _552  and  _553
REMARK  235  A    between atoms: _558  and  _560
REMARK  236  A    between atoms: _560  and  _561
REMARK  237  A    between atoms: _560  and  _563
REMARK  238  A    between atoms: _563  and  _564
REMARK  239  A    between atoms: _567  and  _569
REMARK  240  A    between atoms: _569  and  _570
REMARK  241  A    between atoms: _569  and  _572
REMARK  242  A    between atoms: _572  and  _573
REMARK  243  A    between atoms: _573  and  _574
REMARK  244  A    between atoms: _577  and  _579
REMARK  245  A    between atoms: _579  and  _580
REMARK  246  A    between atoms: _579  and  _582
REMARK  247  A    between atoms: _585  and  _587
REMARK  248  A    between atoms: _587  and  _588
REMARK  249  A    between atoms: _591  and  _593
REMARK  250  A    between atoms: _593  and  _594
REMARK  251  A    between atoms: _593  and  _596
REMARK  252  A    between atoms: _596  and  _597
REMARK  253  A    between atoms: _597  and  _598
REMARK  254  A    between atoms: _601  and  _603
REMARK  255  A    between atoms: _603  and  _604
REMARK  256  A    between atoms: _606  and  _608
REMARK  257  A    between atoms: _608  and  _609
REMARK  258  A    between atoms: _608  and  _611
REMARK  259  A    between atoms: _611  and  _612
REMARK                            x       y       z     vdW  Elec       q    Type
REMARK                         _______ _______ _______ _____ _____    ______ ____
ROOT
ATOM      1  O   HOH     1      31.420  76.725  34.295  0.00  0.00    +0.000 OA
ENDROOT
TORSDOF 0
REMARK  Name = ../refined-set-2016/4jne/4jne_pocket.pdb
REMARK  259 active torsions:
REMARK  status: ('A' for Active; 'I' for Inactive)
REMARK    1  A    between atoms: _1  and  _3
REMARK    2  A    between atoms: _3  and  _4
REMARK    3  A    between atoms: _3  and  _6
REMARK    4  A    between atoms: _6  and  _7
REMARK    5  A    between atoms: _10  and  _12
REMARK    6  A    between atoms: _12  and  _13
REMARK    7  A    between atoms: _12  and  _15
REMARK    8  A    between atoms: _15  and  _16
REMARK    9  A    between atoms: _19  and  _21
REMARK   10  A    between atoms: _21  and  _22
REMARK   11  A    between atoms: _24  and  _26
REMARK   12  A    between atoms: _26  and  _27
REMARK   13  A    between atoms: _26  and  _29
REMARK   14  A    between atoms: _29  and  _30
REMARK   15  A    between atoms: _33  and  _35
REMARK   16  A    between atoms: _35  and  _36
REMARK   17  A    between atoms: _35  and  _38
REMARK   18  A    between atoms: _38  and  _39
REMARK   19  A    between atoms: _42  and  _44
REMARK   20  A    between atoms: _44  and  _45
REMARK   21  A    between atoms: _44  and  _47
REMARK   22  A    between atoms: _47  and  _48
REMARK   23  A    between atoms: _53  and  _55
REMARK   24  A    between atoms: _55  and  _56
REMARK   25  A    between atoms: _55  and  _58
REMARK   26  A    between atoms: _58  and  _59
REMARK   27  A    between atoms: _61  and  _63
REMARK   28  A    between atoms: _63  and  _64
REMARK   29  A    between atoms: _63  and  _66
REMARK   30  A    between atoms: _68  and  _70
REMARK   31  A    between atoms: _70  and  _71
REMARK   32  A    between atoms: _70  and  _73
REMARK   33  A    between atoms: _73  and  _74
REMARK   34  A    between atoms: _77  and  _79
REMARK   35  A    between atoms: _79  and  _80
REMARK   36  A    between atoms: _79  and  _82
REMARK   37  A    between atoms: _82  and  _83
REMARK   38  A    between atoms: _87  and  _88
REMARK   39  A    between atoms: _93  and  _95
REMARK   40  A    between atoms: _95  and  _96
REMARK   41  A    between atoms: _95  and  _98
REMARK   42  A    between atoms: _98  and  _99
REMARK   43  A    between atoms: _101  and  _103
REMARK   44  A    between atoms: _103  and  _104
REMARK   45  A    between atoms: _103  and  _106
REMARK   46  A    between atoms: _106  and  _107
REMARK   47  A    between atoms: _107  and  _108
REMARK   48  A    between atoms: _108  and  _109
REMARK   49  A    between atoms: _109  and  _110
REMARK   50  A    between atoms: _114  and  _116
REMARK   51  A    between atoms: _116  and  _117
REMARK   52  A    between atoms: _120  and  _122
REMARK   53  A    between atoms: _122  and  _123
REMARK   54  A    between atoms: _122  and  _125
REMARK   55  A    between atoms: _125  and  _126
REMARK   56  A    between atoms: _126  and  _127
REMARK   57  A    between atoms: _127  and  _128
REMARK   58  A    between atoms: _128  and  _129
REMARK   59  A    between atoms: _133  and  _135
REMARK   60  A    between atoms: _135  and  _136
REMARK   61  A    between atoms: _135  and  _138
REMARK   62  A    between atoms: _138  and  _139
REMARK   63  A    between atoms: _139  and  _140
REMARK   64  A    between atoms: _140  and  _141
REMARK   65  A    between atoms: _150  and  _152
REMARK   66  A    between atoms: _152  and  _153
REMARK   67  A    between atoms: _152  and  _155
REMARK   68  A    between atoms: _155  and  _156
REMARK   69  A    between atoms: _159  and  _161
REMARK   70  A    between atoms: _161  and  _162
REMARK   71  A    between atoms: _161  and  _164
REMARK   72  A    between atoms: _168  and  _169
REMARK   73  A    between atoms: _174  and  _176
REMARK   74  A    between atoms: _176  and  _177
REMARK   75  A    between atoms: _180  and  _182
REMARK   76  A    between atoms: _182  and  _183
REMARK   77  A    between atoms: _182  and  _185
REMARK   78  A    between atoms: _185  and  _186
REMARK   79  A    between atoms: _192  and  _194
REMARK   80  A    between atoms: _194  and  _195
REMARK   81  A    between atoms: _194  and  _197
REMARK   82  A    between atoms: _197  and  _198
REMARK   83  A    between atoms: _198  and  _199
REMARK   84  A    between atoms: _202  and  _204
REMARK   85  A    between atoms: _204  and  _205
REMARK   86  A    between atoms: _204  and  _207
REMARK   87  A    between atoms: _207  and  _208
REMARK   88  A    between atoms: _211  and  _213
REMARK   89  A    between atoms: _213  and  _214
REMARK   90  A    between atoms: _213  and  _216
REMARK   91  A    between atoms: _216  and  _217
REMARK   92  A    between atoms: _220  and  _222
REMARK   93  A    between atoms: _222  and  _223
REMARK   94  A    between atoms: _225  and  _227
REMARK   95  A    between atoms: _227  and  _228
REMARK   96  A    between atoms: _230  and  _232
REMARK   97  A    between atoms: _232  and  _233
REMARK   98  A    between atoms: _235  and  _237
REMARK   99  A    between atoms: _237  and  _238
REMARK  100  A    between atoms: _241  and  _243
REMARK  101  A    between atoms: _243  and  _244
REMARK  102  A    between atoms: _243  and  _246
REMARK  103  A    between atoms: _246  and  _247
REMARK  104  A    between atoms: _253  and  _255
REMARK  105  A    between atoms: _255  and  _256
REMARK  106  A    between atoms: _255  and  _258
REMARK  107  A    between atoms: _258  and  _259
REMARK  108  A    between atoms: _262  and  _264
REMARK  109  A    between atoms: _264  and  _265
REMARK  110  A    between atoms: _264  and  _267
REMARK  111  A    between atoms: _267  and  _268
REMARK  112  A    between atoms: _271  and  _273
REMARK  113  A    between atoms: _273  and  _274
REMARK  114  A    between atoms: _273  and  _276
REMARK  115  A    between atoms: _276  and  _277
REMARK  116  A    between atoms: _280  and  _282
REMARK  117  A    between atoms: _282  and  _283
REMARK  118  A    between atoms: _282  and  _285
REMARK  119  A    between atoms: _285  and  _286
REMARK  120  A    between atoms: _289  and  _291
REMARK  121  A    between atoms: _291  and  _292
REMARK  122  A    between atoms: _294  and  _296
REMARK  123  A    between atoms: _296  and  _297
REMARK  124  A    between atoms: _299  and  _301
REMARK  125  A    between atoms: _301  and  _302
REMARK  126  A    between atoms: _301  and  _304
REMARK  127  A    between atoms: _304  and  _305
REMARK  128  A    between atoms: _305  and  _306
REMARK  129  A    between atoms: _309  and  _311
REMARK  130  A    between atoms: _311  and  _312
REMARK  131  A    between atoms: _311  and  _314
REMARK  132  A    between atoms: _314  and  _315
REMARK  133  A    between atoms: _318  and  _320
REMARK  134  A    between atoms: _320  and  _321
REMARK  135  A    between atoms: _320  and  _323
REMARK  136  A    between atoms: _323  and  _324
REMARK  137  A    between atoms: _330  and  _332
REMARK  138  A    between atoms: _332  and  _333
REMARK  139  A    between atoms: _332  and  _335
REMARK  140  A    between atoms: _335  and  _336
REMARK  141  A    between atoms: _339  and  _341
REMARK  142  A    between atoms: _341  and  _342
REMARK  143  A    between atoms: _341  and  _344
REMARK  144  A    between atoms: _344  and  _345
REMARK  145  A    between atoms: _345  and  _346
REMARK  146  A    between atoms: _346  and  _347
REMARK  147  A    between atoms: _347  and  _348
REMARK  148  A    between atoms: _352  and  _354
REMARK  149  A    between atoms: _354  and  _355
REMARK  150  A    between atoms: _358  and  _360
REMARK  151  A    between atoms: _360  and  _361
REMARK  152  A    between atoms: _360  and  _363
REMARK  153  A    between atoms: _363  and  _364
REMARK  154  A    between atoms: _364  and  _365
REMARK  155  A    between atoms: _368  and  _370
REMARK  156  A    between atoms: _370  and  _371
REMARK  157  A    between atoms: _370  and  _373
REMARK  158  A    between atoms: _373  and  _374
REMARK  159  A    between atoms: _374  and  _375
REMARK  160  A    between atoms: _375  and  _376
REMARK  161  A    between atoms: _376  and  _377
REMARK  162  A    between atoms: _381  and  _383
REMARK  163  A    between atoms: _383  and  _384
REMARK  164  A    between atoms: _387  and  _389
REMARK  165  A    between atoms: _389  and  _390
REMARK  166  A    between atoms: _389  and  _392
REMARK  167  A    between atoms: _392  and  _393
REMARK  168  A    between atoms: _393  and  _394
REMARK  169  A    between atoms: _394  and  _395
REMARK  170  A    between atoms: _395  and  _396
REMARK  171  A    between atoms: _400  and  _402
REMARK  172  A    between atoms: _402  and  _403
REMARK  173  A    between atoms: _402  and  _405
REMARK  174  A    between atoms: _405  and  _406
REMARK  175  A    between atoms: _409  and  _411
REMARK  176  A    between atoms: _411  and  _412
REMARK  177  A    between atoms: _411  and  _414
REMARK  178  A    between atoms: _414  and  _415
REMARK  179  A    between atoms: _415  and  _416
REMARK  180  A    between atoms: _419  and  _421
REMARK  181  A    between atoms: _421  and  _422
REMARK  182  A    between atoms: _421  and  _424
REMARK  183  A    between atoms: _424  and  _425
REMARK  184  A    between atoms: _428  and  _430
REMARK  185  A    between atoms: _430  and  _431
REMARK  186  A    between atoms: _430  and  _433
REMARK  187  A    between atoms: _433  and  _434
REMARK  188  A    between atoms: _436  and  _438
REMARK  189  A    between atoms: _438  and  _439
REMARK  190  A    between atoms: _438  and  _441
REMARK  191  A    between atoms: _441  and  _442
REMARK  192  A    between atoms: _444  and  _446
REMARK  193  A    between atoms: _446  and  _447
REMARK  194  A    between atoms: _450  and  _452
REMARK  195  A    between atoms: _452  and  _453
REMARK  196  A    between atoms: _452  and  _455
REMARK  197  A    between atoms: _455  and  _456
REMARK  198  A    between atoms: _459  and  _461
REMARK  199  A    between atoms: _461  and  _462
REMARK  200  A    between atoms: _461  and  _464
REMARK  201  A    between atoms: _467  and  _469
REMARK  202  A    between atoms: _469  and  _470
REMARK  203  A    between atoms: _472  and  _474
REMARK  204  A    between atoms: _474  and  _475
REMARK  205  A    between atoms: _477  and  _479
REMARK  206  A    between atoms: _479  and  _480
REMARK  207  A    between atoms: _479  and  _482
REMARK  208  A    between atoms: _482  and  _483
REMARK  209  A    between atoms: _483  and  _484
REMARK  210  A    between atoms: _489  and  _491
REMARK  211  A    between atoms: _491  and  _492
REMARK  212  A    between atoms: _491  and  _494
REMARK  213  A    between atoms: _494  and  _495
REMARK  214  A    between atoms: _498  and  _500
REMARK  215  A    between atoms: _500  and  _501
REMARK  216  A    between atoms: _500  and  _503
REMARK  217  A    between atoms: _503  and  _504
REMARK  218  A    between atoms: _504  and  _505
REMARK  219  A    between atoms: _505  and  _506
REMARK  220  A    between atoms: _515  and  _517
REMARK  221  A    between atoms: _517  and  _518
REMARK  222  A    between atoms: _517  and  _520
REMARK  223  A    between atoms: _520  and  _521
REMARK  224  A    between atoms: _521  and  _522
REMARK  225  A    between atoms: _525  and  _526
REMARK  226  A    between atoms: _531  and  _533
REMARK  227  A    between atoms: _533  and  _534
REMARK  228  A    between atoms: _533  and  _536
REMARK  229  A    between atoms: _539  and  _541
REMARK  230  A    between atoms: _541  and  _542
REMARK  231  A    between atoms: _541  and  _544
REMARK  232  A    between atoms: _544  and  _545
REMARK  233  A    between atoms: _545  and  _546
REMARK  234  A    between atoms: _552  and  _553
REMARK  235  A    between atoms: _558  and  _560
REMARK  236  A    between atoms: _560  and  _561
REMARK  237  A    between atoms: _560  and  _563
REMARK  238  A    between atoms: _563  and  _564
REMARK  239  A    between atoms: _567  and  _569
REMARK  240  A    between atoms: _569  and  _570
REMARK  241  A    between atoms: _569  and  _572
REMARK  242  A    between atoms: _572  and  _573
REMARK  243  A    between atoms: _573  and  _574
REMARK  244  A    between atoms: _577  and  _579
REMARK  245  A    between atoms: _579  and  _580
REMARK  246  A    between atoms: _579  and  _582
REMARK  247  A    between atoms: _585  and  _587
REMARK  248  A    between atoms: _587  and  _588
REMARK  249  A    between atoms: _591  and  _593
REMARK  250  A    between atoms: _593  and  _594
REMARK  251  A    between atoms: _593  and  _596
REMARK  252  A    between atoms: _596  and  _597
REMARK  253  A    between atoms: _597  and  _598
REMARK  254  A    between atoms: _601  and  _603
REMARK  255  A    between atoms: _603  and  _604
REMARK  256  A    between atoms: _606  and  _608
REMARK  257  A    between atoms: _608  and  _609
REMARK  258  A    between atoms: _608  and  _611
REMARK  259  A    between atoms: _611  and  _612
REMARK                            x       y       z     vdW  Elec       q    Type
REMARK                         _______ _______ _______ _____ _____    ______ ____
ROOT
ATOM      1  O   HOH     1      23.813  69.000  37.740  0.00  0.00    +0.000 OA
ENDROOT
TORSDOF 0
REMARK  Name = ../refined-set-2016/4jne/4jne_pocket.pdb
REMARK  259 active torsions:
REMARK  status: ('A' for Active; 'I' for Inactive)
REMARK    1  A    between atoms: _1  and  _3
REMARK    2  A    between atoms: _3  and  _4
REMARK    3  A    between atoms: _3  and  _6
REMARK    4  A    between atoms: _6  and  _7
REMARK    5  A    between atoms: _10  and  _12
REMARK    6  A    between atoms: _12  and  _13
REMARK    7  A    between atoms: _12  and  _15
REMARK    8  A    between atoms: _15  and  _16
REMARK    9  A    between atoms: _19  and  _21
REMARK   10  A    between atoms: _21  and  _22
REMARK   11  A    between atoms: _24  and  _26
REMARK   12  A    between atoms: _26  and  _27
REMARK   13  A    between atoms: _26  and  _29
REMARK   14  A    between atoms: _29  and  _30
REMARK   15  A    between atoms: _33  and  _35
REMARK   16  A    between atoms: _35  and  _36
REMARK   17  A    between atoms: _35  and  _38
REMARK   18  A    between atoms: _38  and  _39
REMARK   19  A    between atoms: _42  and  _44
REMARK   20  A    between atoms: _44  and  _45
REMARK   21  A    between atoms: _44  and  _47
REMARK   22  A    between atoms: _47  and  _48
REMARK   23  A    between atoms: _53  and  _55
REMARK   24  A    between atoms: _55  and  _56
REMARK   25  A    between atoms: _55  and  _58
REMARK   26  A    between atoms: _58  and  _59
REMARK   27  A    between atoms: _61  and  _63
REMARK   28  A    between atoms: _63  and  _64
REMARK   29  A    between atoms: _63  and  _66
REMARK   30  A    between atoms: _68  and  _70
REMARK   31  A    between atoms: _70  and  _71
REMARK   32  A    between atoms: _70  and  _73
REMARK   33  A    between atoms: _73  and  _74
REMARK   34  A    between atoms: _77  and  _79
REMARK   35  A    between atoms: _79  and  _80
REMARK   36  A    between atoms: _79  and  _82
REMARK   37  A    between atoms: _82  and  _83
REMARK   38  A    between atoms: _87  and  _88
REMARK   39  A    between atoms: _93  and  _95
REMARK   40  A    between atoms: _95  and  _96
REMARK   41  A    between atoms: _95  and  _98
REMARK   42  A    between atoms: _98  and  _99
REMARK   43  A    between atoms: _101  and  _103
REMARK   44  A    between atoms: _103  and  _104
REMARK   45  A    between atoms: _103  and  _106
REMARK   46  A    between atoms: _106  and  _107
REMARK   47  A    between atoms: _107  and  _108
REMARK   48  A    between atoms: _108  and  _109
REMARK   49  A    between atoms: _109  and  _110
REMARK   50  A    between atoms: _114  and  _116
REMARK   51  A    between atoms: _116  and  _117
REMARK   52  A    between atoms: _120  and  _122
REMARK   53  A    between atoms: _122  and  _123
REMARK   54  A    between atoms: _122  and  _125
REMARK   55  A    between atoms: _125  and  _126
REMARK   56  A    between atoms: _126  and  _127
REMARK   57  A    between atoms: _127  and  _128
REMARK   58  A    between atoms: _128  and  _129
REMARK   59  A    between atoms: _133  and  _135
REMARK   60  A    between atoms: _135  and  _136
REMARK   61  A    between atoms: _135  and  _138
REMARK   62  A    between atoms: _138  and  _139
REMARK   63  A    between atoms: _139  and  _140
REMARK   64  A    between atoms: _140  and  _141
REMARK   65  A    between atoms: _150  and  _152
REMARK   66  A    between atoms: _152  and  _153
REMARK   67  A    between atoms: _152  and  _155
REMARK   68  A    between atoms: _155  and  _156
REMARK   69  A    between atoms: _159  and  _161
REMARK   70  A    between atoms: _161  and  _162
REMARK   71  A    between atoms: _161  and  _164
REMARK   72  A    between atoms: _168  and  _169
REMARK   73  A    between atoms: _174  and  _176
REMARK   74  A    between atoms: _176  and  _177
REMARK   75  A    between atoms: _180  and  _182
REMARK   76  A    between atoms: _182  and  _183
REMARK   77  A    between atoms: _182  and  _185
REMARK   78  A    between atoms: _185  and  _186
REMARK   79  A    between atoms: _192  and  _194
REMARK   80  A    between atoms: _194  and  _195
REMARK   81  A    between atoms: _194  and  _197
REMARK   82  A    between atoms: _197  and  _198
REMARK   83  A    between atoms: _198  and  _199
REMARK   84  A    between atoms: _202  and  _204
REMARK   85  A    between atoms: _204  and  _205
REMARK   86  A    between atoms: _204  and  _207
REMARK   87  A    between atoms: _207  and  _208
REMARK   88  A    between atoms: _211  and  _213
REMARK   89  A    between atoms: _213  and  _214
REMARK   90  A    between atoms: _213  and  _216
REMARK   91  A    between atoms: _216  and  _217
REMARK   92  A    between atoms: _220  and  _222
REMARK   93  A    between atoms: _222  and  _223
REMARK   94  A    between atoms: _225  and  _227
REMARK   95  A    between atoms: _227  and  _228
REMARK   96  A    between atoms: _230  and  _232
REMARK   97  A    between atoms: _232  and  _233
REMARK   98  A    between atoms: _235  and  _237
REMARK   99  A    between atoms: _237  and  _238
REMARK  100  A    between atoms: _241  and  _243
REMARK  101  A    between atoms: _243  and  _244
REMARK  102  A    between atoms: _243  and  _246
REMARK  103  A    between atoms: _246  and  _247
REMARK  104  A    between atoms: _253  and  _255
REMARK  105  A    between atoms: _255  and  _256
REMARK  106  A    between atoms: _255  and  _258
REMARK  107  A    between atoms: _258  and  _259
REMARK  108  A    between atoms: _262  and  _264
REMARK  109  A    between atoms: _264  and  _265
REMARK  110  A    between atoms: _264  and  _267
REMARK  111  A    between atoms: _267  and  _268
REMARK  112  A    between atoms: _271  and  _273
REMARK  113  A    between atoms: _273  and  _274
REMARK  114  A    between atoms: _273  and  _276
REMARK  115  A    between atoms: _276  and  _277
REMARK  116  A    between atoms: _280  and  _282
REMARK  117  A    between atoms: _282  and  _283
REMARK  118  A    between atoms: _282  and  _285
REMARK  119  A    between atoms: _285  and  _286
REMARK  120  A    between atoms: _289  and  _291
REMARK  121  A    between atoms: _291  and  _292
REMARK  122  A    between atoms: _294  and  _296
REMARK  123  A    between atoms: _296  and  _297
REMARK  124  A    between atoms: _299  and  _301
REMARK  125  A    between atoms: _301  and  _302
REMARK  126  A    between atoms: _301  and  _304
REMARK  127  A    between atoms: _304  and  _305
REMARK  128  A    between atoms: _305  and  _306
REMARK  129  A    between atoms: _309  and  _311
REMARK  130  A    between atoms: _311  and  _312
REMARK  131  A    between atoms: _311  and  _314
REMARK  132  A    between atoms: _314  and  _315
REMARK  133  A    between atoms: _318  and  _320
REMARK  134  A    between atoms: _320  and  _321
REMARK  135  A    between atoms: _320  and  _323
REMARK  136  A    between atoms: _323  and  _324
REMARK  137  A    between atoms: _330  and  _332
REMARK  138  A    between atoms: _332  and  _333
REMARK  139  A    between atoms: _332  and  _335
REMARK  140  A    between atoms: _335  and  _336
REMARK  141  A    between atoms: _339  and  _341
REMARK  142  A    between atoms: _341  and  _342
REMARK  143  A    between atoms: _341  and  _344
REMARK  144  A    between atoms: _344  and  _345
REMARK  145  A    between atoms: _345  and  _346
REMARK  146  A    between atoms: _346  and  _347
REMARK  147  A    between atoms: _347  and  _348
REMARK  148  A    between atoms: _352  and  _354
REMARK  149  A    between atoms: _354  and  _355
REMARK  150  A    between atoms: _358  and  _360
REMARK  151  A    between atoms: _360  and  _361
REMARK  152  A    between atoms: _360  and  _363
REMARK  153  A    between atoms: _363  and  _364
REMARK  154  A    between atoms: _364  and  _365
REMARK  155  A    between atoms: _368  and  _370
REMARK  156  A    between atoms: _370  and  _371
REMARK  157  A    between atoms: _370  and  _373
REMARK  158  A    between atoms: _373  and  _374
REMARK  159  A    between atoms: _374  and  _375
REMARK  160  A    between atoms: _375  and  _376
REMARK  161  A    between atoms: _376  and  _377
REMARK  162  A    between atoms: _381  and  _383
REMARK  163  A    between atoms: _383  and  _384
REMARK  164  A    between atoms: _387  and  _389
REMARK  165  A    between atoms: _389  and  _390
REMARK  166  A    between atoms: _389  and  _392
REMARK  167  A    between atoms: _392  and  _393
REMARK  168  A    between atoms: _393  and  _394
REMARK  169  A    between atoms: _394  and  _395
REMARK  170  A    between atoms: _395  and  _396
REMARK  171  A    between atoms: _400  and  _402
REMARK  172  A    between atoms: _402  and  _403
REMARK  173  A    between atoms: _402  and  _405
REMARK  174  A    between atoms: _405  and  _406
REMARK  175  A    between atoms: _409  and  _411
REMARK  176  A    between atoms: _411  and  _412
REMARK  177  A    between atoms: _411  and  _414
REMARK  178  A    between atoms: _414  and  _415
REMARK  179  A    between atoms: _415  and  _416
REMARK  180  A    between atoms: _419  and  _421
REMARK  181  A    between atoms: _421  and  _422
REMARK  182  A    between atoms: _421  and  _424
REMARK  183  A    between atoms: _424  and  _425
REMARK  184  A    between atoms: _428  and  _430
REMARK  185  A    between atoms: _430  and  _431
REMARK  186  A    between atoms: _430  and  _433
REMARK  187  A    between atoms: _433  and  _434
REMARK  188  A    between atoms: _436  and  _438
REMARK  189  A    between atoms: _438  and  _439
REMARK  190  A    between atoms: _438  and  _441
REMARK  191  A    between atoms: _441  and  _442
REMARK  192  A    between atoms: _444  and  _446
REMARK  193  A    between atoms: _446  and  _447
REMARK  194  A    between atoms: _450  and  _452
REMARK  195  A    between atoms: _452  and  _453
REMARK  196  A    between atoms: _452  and  _455
REMARK  197  A    between atoms: _455  and  _456
REMARK  198  A    between atoms: _459  and  _461
REMARK  199  A    between atoms: _461  and  _462
REMARK  200  A    between atoms: _461  and  _464
REMARK  201  A    between atoms: _467  and  _469
REMARK  202  A    between atoms: _469  and  _470
REMARK  203  A    between atoms: _472  and  _474
REMARK  204  A    between atoms: _474  and  _475
REMARK  205  A    between atoms: _477  and  _479
REMARK  206  A    between atoms: _479  and  _480
REMARK  207  A    between atoms: _479  and  _482
REMARK  208  A    between atoms: _482  and  _483
REMARK  209  A    between atoms: _483  and  _484
REMARK  210  A    between atoms: _489  and  _491
REMARK  211  A    between atoms: _491  and  _492
REMARK  212  A    between atoms: _491  and  _494
REMARK  213  A    between atoms: _494  and  _495
REMARK  214  A    between atoms: _498  and  _500
REMARK  215  A    between atoms: _500  and  _501
REMARK  216  A    between atoms: _500  and  _503
REMARK  217  A    between atoms: _503  and  _504
REMARK  218  A    between atoms: _504  and  _505
REMARK  219  A    between atoms: _505  and  _506
REMARK  220  A    between atoms: _515  and  _517
REMARK  221  A    between atoms: _517  and  _518
REMARK  222  A    between atoms: _517  and  _520
REMARK  223  A    between atoms: _520  and  _521
REMARK  224  A    between atoms: _521  and  _522
REMARK  225  A    between atoms: _525  and  _526
REMARK  226  A    between atoms: _531  and  _533
REMARK  227  A    between atoms: _533  and  _534
REMARK  228  A    between atoms: _533  and  _536
REMARK  229  A    between atoms: _539  and  _541
REMARK  230  A    between atoms: _541  and  _542
REMARK  231  A    between atoms: _541  and  _544
REMARK  232  A    between atoms: _544  and  _545
REMARK  233  A    between atoms: _545  and  _546
REMARK  234  A    between atoms: _552  and  _553
REMARK  235  A    between atoms: _558  and  _560
REMARK  236  A    between atoms: _560  and  _561
REMARK  237  A    between atoms: _560  and  _563
REMARK  238  A    between atoms: _563  and  _564
REMARK  239  A    between atoms: _567  and  _569
REMARK  240  A    between atoms: _569  and  _570
REMARK  241  A    between atoms: _569  and  _572
REMARK  242  A    between atoms: _572  and  _573
REMARK  243  A    between atoms: _573  and  _574
REMARK  244  A    between atoms: _577  and  _579
REMARK  245  A    between atoms: _579  and  _580
REMARK  246  A    between atoms: _579  and  _582
REMARK  247  A    between atoms: _585  and  _587
REMARK  248  A    between atoms: _587  and  _588
REMARK  249  A    between atoms: _591  and  _593
REMARK  250  A    between atoms: _593  and  _594
REMARK  251  A    between atoms: _593  and  _596
REMARK  252  A    between atoms: _596  and  _597
REMARK  253  A    between atoms: _597  and  _598
REMARK  254  A    between atoms: _601  and  _603
REMARK  255  A    between atoms: _603  and  _604
REMARK  256  A    between atoms: _606  and  _608
REMARK  257  A    between atoms: _608  and  _609
REMARK  258  A    between atoms: _608  and  _611
REMARK  259  A    between atoms: _611  and  _612
REMARK                            x       y       z     vdW  Elec       q    Type
REMARK                         _______ _______ _______ _____ _____    ______ ____
ROOT
ATOM      1  O   HOH     1      30.735  80.314  32.686  0.00  0.00    +0.000 OA
ENDROOT
TORSDOF 0
REMARK  Name = ../refined-set-2016/4jne/4jne_pocket.pdb
REMARK  259 active torsions:
REMARK  status: ('A' for Active; 'I' for Inactive)
REMARK    1  A    between atoms: _1  and  _3
REMARK    2  A    between atoms: _3  and  _4
REMARK    3  A    between atoms: _3  and  _6
REMARK    4  A    between atoms: _6  and  _7
REMARK    5  A    between atoms: _10  and  _12
REMARK    6  A    between atoms: _12  and  _13
REMARK    7  A    between atoms: _12  and  _15
REMARK    8  A    between atoms: _15  and  _16
REMARK    9  A    between atoms: _19  and  _21
REMARK   10  A    between atoms: _21  and  _22
REMARK   11  A    between atoms: _24  and  _26
REMARK   12  A    between atoms: _26  and  _27
REMARK   13  A    between atoms: _26  and  _29
REMARK   14  A    between atoms: _29  and  _30
REMARK   15  A    between atoms: _33  and  _35
REMARK   16  A    between atoms: _35  and  _36
REMARK   17  A    between atoms: _35  and  _38
REMARK   18  A    between atoms: _38  and  _39
REMARK   19  A    between atoms: _42  and  _44
REMARK   20  A    between atoms: _44  and  _45
REMARK   21  A    between atoms: _44  and  _47
REMARK   22  A    between atoms: _47  and  _48
REMARK   23  A    between atoms: _53  and  _55
REMARK   24  A    between atoms: _55  and  _56
REMARK   25  A    between atoms: _55  and  _58
REMARK   26  A    between atoms: _58  and  _59
REMARK   27  A    between atoms: _61  and  _63
REMARK   28  A    between atoms: _63  and  _64
REMARK   29  A    between atoms: _63  and  _66
REMARK   30  A    between atoms: _68  and  _70
REMARK   31  A    between atoms: _70  and  _71
REMARK   32  A    between atoms: _70  and  _73
REMARK   33  A    between atoms: _73  and  _74
REMARK   34  A    between atoms: _77  and  _79
REMARK   35  A    between atoms: _79  and  _80
REMARK   36  A    between atoms: _79  and  _82
REMARK   37  A    between atoms: _82  and  _83
REMARK   38  A    between atoms: _87  and  _88
REMARK   39  A    between atoms: _93  and  _95
REMARK   40  A    between atoms: _95  and  _96
REMARK   41  A    between atoms: _95  and  _98
REMARK   42  A    between atoms: _98  and  _99
REMARK   43  A    between atoms: _101  and  _103
REMARK   44  A    between atoms: _103  and  _104
REMARK   45  A    between atoms: _103  and  _106
REMARK   46  A    between atoms: _106  and  _107
REMARK   47  A    between atoms: _107  and  _108
REMARK   48  A    between atoms: _108  and  _109
REMARK   49  A    between atoms: _109  and  _110
REMARK   50  A    between atoms: _114  and  _116
REMARK   51  A    between atoms: _116  and  _117
REMARK   52  A    between atoms: _120  and  _122
REMARK   53  A    between atoms: _122  and  _123
REMARK   54  A    between atoms: _122  and  _125
REMARK   55  A    between atoms: _125  and  _126
REMARK   56  A    between atoms: _126  and  _127
REMARK   57  A    between atoms: _127  and  _128
REMARK   58  A    between atoms: _128  and  _129
REMARK   59  A    between atoms: _133  and  _135
REMARK   60  A    between atoms: _135  and  _136
REMARK   61  A    between atoms: _135  and  _138
REMARK   62  A    between atoms: _138  and  _139
REMARK   63  A    between atoms: _139  and  _140
REMARK   64  A    between atoms: _140  and  _141
REMARK   65  A    between atoms: _150  and  _152
REMARK   66  A    between atoms: _152  and  _153
REMARK   67  A    between atoms: _152  and  _155
REMARK   68  A    between atoms: _155  and  _156
REMARK   69  A    between atoms: _159  and  _161
REMARK   70  A    between atoms: _161  and  _162
REMARK   71  A    between atoms: _161  and  _164
REMARK   72  A    between atoms: _168  and  _169
REMARK   73  A    between atoms: _174  and  _176
REMARK   74  A    between atoms: _176  and  _177
REMARK   75  A    between atoms: _180  and  _182
REMARK   76  A    between atoms: _182  and  _183
REMARK   77  A    between atoms: _182  and  _185
REMARK   78  A    between atoms: _185  and  _186
REMARK   79  A    between atoms: _192  and  _194
REMARK   80  A    between atoms: _194  and  _195
REMARK   81  A    between atoms: _194  and  _197
REMARK   82  A    between atoms: _197  and  _198
REMARK   83  A    between atoms: _198  and  _199
REMARK   84  A    between atoms: _202  and  _204
REMARK   85  A    between atoms: _204  and  _205
REMARK   86  A    between atoms: _204  and  _207
REMARK   87  A    between atoms: _207  and  _208
REMARK   88  A    between atoms: _211  and  _213
REMARK   89  A    between atoms: _213  and  _214
REMARK   90  A    between atoms: _213  and  _216
REMARK   91  A    between atoms: _216  and  _217
REMARK   92  A    between atoms: _220  and  _222
REMARK   93  A    between atoms: _222  and  _223
REMARK   94  A    between atoms: _225  and  _227
REMARK   95  A    between atoms: _227  and  _228
REMARK   96  A    between atoms: _230  and  _232
REMARK   97  A    between atoms: _232  and  _233
REMARK   98  A    between atoms: _235  and  _237
REMARK   99  A    between atoms: _237  and  _238
REMARK  100  A    between atoms: _241  and  _243
REMARK  101  A    between atoms: _243  and  _244
REMARK  102  A    between atoms: _243  and  _246
REMARK  103  A    between atoms: _246  and  _247
REMARK  104  A    between atoms: _253  and  _255
REMARK  105  A    between atoms: _255  and  _256
REMARK  106  A    between atoms: _255  and  _258
REMARK  107  A    between atoms: _258  and  _259
REMARK  108  A    between atoms: _262  and  _264
REMARK  109  A    between atoms: _264  and  _265
REMARK  110  A    between atoms: _264  and  _267
REMARK  111  A    between atoms: _267  and  _268
REMARK  112  A    between atoms: _271  and  _273
REMARK  113  A    between atoms: _273  and  _274
REMARK  114  A    between atoms: _273  and  _276
REMARK  115  A    between atoms: _276  and  _277
REMARK  116  A    between atoms: _280  and  _282
REMARK  117  A    between atoms: _282  and  _283
REMARK  118  A    between atoms: _282  and  _285
REMARK  119  A    between atoms: _285  and  _286
REMARK  120  A    between atoms: _289  and  _291
REMARK  121  A    between atoms: _291  and  _292
REMARK  122  A    between atoms: _294  and  _296
REMARK  123  A    between atoms: _296  and  _297
REMARK  124  A    between atoms: _299  and  _301
REMARK  125  A    between atoms: _301  and  _302
REMARK  126  A    between atoms: _301  and  _304
REMARK  127  A    between atoms: _304  and  _305
REMARK  128  A    between atoms: _305  and  _306
REMARK  129  A    between atoms: _309  and  _311
REMARK  130  A    between atoms: _311  and  _312
REMARK  131  A    between atoms: _311  and  _314
REMARK  132  A    between atoms: _314  and  _315
REMARK  133  A    between atoms: _318  and  _320
REMARK  134  A    between atoms: _320  and  _321
REMARK  135  A    between atoms: _320  and  _323
REMARK  136  A    between atoms: _323  and  _324
REMARK  137  A    between atoms: _330  and  _332
REMARK  138  A    between atoms: _332  and  _333
REMARK  139  A    between atoms: _332  and  _335
REMARK  140  A    between atoms: _335  and  _336
REMARK  141  A    between atoms: _339  and  _341
REMARK  142  A    between atoms: _341  and  _342
REMARK  143  A    between atoms: _341  and  _344
REMARK  144  A    between atoms: _344  and  _345
REMARK  145  A    between atoms: _345  and  _346
REMARK  146  A    between atoms: _346  and  _347
REMARK  147  A    between atoms: _347  and  _348
REMARK  148  A    between atoms: _352  and  _354
REMARK  149  A    between atoms: _354  and  _355
REMARK  150  A    between atoms: _358  and  _360
REMARK  151  A    between atoms: _360  and  _361
REMARK  152  A    between atoms: _360  and  _363
REMARK  153  A    between atoms: _363  and  _364
REMARK  154  A    between atoms: _364  and  _365
REMARK  155  A    between atoms: _368  and  _370
REMARK  156  A    between atoms: _370  and  _371
REMARK  157  A    between atoms: _370  and  _373
REMARK  158  A    between atoms: _373  and  _374
REMARK  159  A    between atoms: _374  and  _375
REMARK  160  A    between atoms: _375  and  _376
REMARK  161  A    between atoms: _376  and  _377
REMARK  162  A    between atoms: _381  and  _383
REMARK  163  A    between atoms: _383  and  _384
REMARK  164  A    between atoms: _387  and  _389
REMARK  165  A    between atoms: _389  and  _390
REMARK  166  A    between atoms: _389  and  _392
REMARK  167  A    between atoms: _392  and  _393
REMARK  168  A    between atoms: _393  and  _394
REMARK  169  A    between atoms: _394  and  _395
REMARK  170  A    between atoms: _395  and  _396
REMARK  171  A    between atoms: _400  and  _402
REMARK  172  A    between atoms: _402  and  _403
REMARK  173  A    between atoms: _402  and  _405
REMARK  174  A    between atoms: _405  and  _406
REMARK  175  A    between atoms: _409  and  _411
REMARK  176  A    between atoms: _411  and  _412
REMARK  177  A    between atoms: _411  and  _414
REMARK  178  A    between atoms: _414  and  _415
REMARK  179  A    between atoms: _415  and  _416
REMARK  180  A    between atoms: _419  and  _421
REMARK  181  A    between atoms: _421  and  _422
REMARK  182  A    between atoms: _421  and  _424
REMARK  183  A    between atoms: _424  and  _425
REMARK  184  A    between atoms: _428  and  _430
REMARK  185  A    between atoms: _430  and  _431
REMARK  186  A    between atoms: _430  and  _433
REMARK  187  A    between atoms: _433  and  _434
REMARK  188  A    between atoms: _436  and  _438
REMARK  189  A    between atoms: _438  and  _439
REMARK  190  A    between atoms: _438  and  _441
REMARK  191  A    between atoms: _441  and  _442
REMARK  192  A    between atoms: _444  and  _446
REMARK  193  A    between atoms: _446  and  _447
REMARK  194  A    between atoms: _450  and  _452
REMARK  195  A    between atoms: _452  and  _453
REMARK  196  A    between atoms: _452  and  _455
REMARK  197  A    between atoms: _455  and  _456
REMARK  198  A    between atoms: _459  and  _461
REMARK  199  A    between atoms: _461  and  _462
REMARK  200  A    between atoms: _461  and  _464
REMARK  201  A    between atoms: _467  and  _469
REMARK  202  A    between atoms: _469  and  _470
REMARK  203  A    between atoms: _472  and  _474
REMARK  204  A    between atoms: _474  and  _475
REMARK  205  A    between atoms: _477  and  _479
REMARK  206  A    between atoms: _479  and  _480
REMARK  207  A    between atoms: _479  and  _482
REMARK  208  A    between atoms: _482  and  _483
REMARK  209  A    between atoms: _483  and  _484
REMARK  210  A    between atoms: _489  and  _491
REMARK  211  A    between atoms: _491  and  _492
REMARK  212  A    between atoms: _491  and  _494
REMARK  213  A    between atoms: _494  and  _495
REMARK  214  A    between atoms: _498  and  _500
REMARK  215  A    between atoms: _500  and  _501
REMARK  216  A    between atoms: _500  and  _503
REMARK  217  A    between atoms: _503  and  _504
REMARK  218  A    between atoms: _504  and  _505
REMARK  219  A    between atoms: _505  and  _506
REMARK  220  A    between atoms: _515  and  _517
REMARK  221  A    between atoms: _517  and  _518
REMARK  222  A    between atoms: _517  and  _520
REMARK  223  A    between atoms: _520  and  _521
REMARK  224  A    between atoms: _521  and  _522
REMARK  225  A    between atoms: _525  and  _526
REMARK  226  A    between atoms: _531  and  _533
REMARK  227  A    between atoms: _533  and  _534
REMARK  228  A    between atoms: _533  and  _536
REMARK  229  A    between atoms: _539  and  _541
REMARK  230  A    between atoms: _541  and  _542
REMARK  231  A    between atoms: _541  and  _544
REMARK  232  A    between atoms: _544  and  _545
REMARK  233  A    between atoms: _545  and  _546
REMARK  234  A    between atoms: _552  and  _553
REMARK  235  A    between atoms: _558  and  _560
REMARK  236  A    between atoms: _560  and  _561
REMARK  237  A    between atoms: _560  and  _563
REMARK  238  A    between atoms: _563  and  _564
REMARK  239  A    between atoms: _567  and  _569
REMARK  240  A    between atoms: _569  and  _570
REMARK  241  A    between atoms: _569  and  _572
REMARK  242  A    between atoms: _572  and  _573
REMARK  243  A    between atoms: _573  and  _574
REMARK  244  A    between atoms: _577  and  _579
REMARK  245  A    between atoms: _579  and  _580
REMARK  246  A    between atoms: _579  and  _582
REMARK  247  A    between atoms: _585  and  _587
REMARK  248  A    between atoms: _587  and  _588
REMARK  249  A    between atoms: _591  and  _593
REMARK  250  A    between atoms: _593  and  _594
REMARK  251  A    between atoms: _593  and  _596
REMARK  252  A    between atoms: _596  and  _597
REMARK  253  A    between atoms: _597  and  _598
REMARK  254  A    between atoms: _601  and  _603
REMARK  255  A    between atoms: _603  and  _604
REMARK  256  A    between atoms: _606  and  _608
REMARK  257  A    between atoms: _608  and  _609
REMARK  258  A    between atoms: _608  and  _611
REMARK  259  A    between atoms: _611  and  _612
REMARK                            x       y       z     vdW  Elec       q    Type
REMARK                         _______ _______ _______ _____ _____    ______ ____
ROOT
ATOM      1  O   HOH     1      21.024  82.893  27.682  0.00  0.00    +0.000 OA
ENDROOT
TORSDOF 0
REMARK  Name = ../refined-set-2016/4jne/4jne_pocket.pdb
REMARK  259 active torsions:
REMARK  status: ('A' for Active; 'I' for Inactive)
REMARK    1  A    between atoms: _1  and  _3
REMARK    2  A    between atoms: _3  and  _4
REMARK    3  A    between atoms: _3  and  _6
REMARK    4  A    between atoms: _6  and  _7
REMARK    5  A    between atoms: _10  and  _12
REMARK    6  A    between atoms: _12  and  _13
REMARK    7  A    between atoms: _12  and  _15
REMARK    8  A    between atoms: _15  and  _16
REMARK    9  A    between atoms: _19  and  _21
REMARK   10  A    between atoms: _21  and  _22
REMARK   11  A    between atoms: _24  and  _26
REMARK   12  A    between atoms: _26  and  _27
REMARK   13  A    between atoms: _26  and  _29
REMARK   14  A    between atoms: _29  and  _30
REMARK   15  A    between atoms: _33  and  _35
REMARK   16  A    between atoms: _35  and  _36
REMARK   17  A    between atoms: _35  and  _38
REMARK   18  A    between atoms: _38  and  _39
REMARK   19  A    between atoms: _42  and  _44
REMARK   20  A    between atoms: _44  and  _45
REMARK   21  A    between atoms: _44  and  _47
REMARK   22  A    between atoms: _47  and  _48
REMARK   23  A    between atoms: _53  and  _55
REMARK   24  A    between atoms: _55  and  _56
REMARK   25  A    between atoms: _55  and  _58
REMARK   26  A    between atoms: _58  and  _59
REMARK   27  A    between atoms: _61  and  _63
REMARK   28  A    between atoms: _63  and  _64
REMARK   29  A    between atoms: _63  and  _66
REMARK   30  A    between atoms: _68  and  _70
REMARK   31  A    between atoms: _70  and  _71
REMARK   32  A    between atoms: _70  and  _73
REMARK   33  A    between atoms: _73  and  _74
REMARK   34  A    between atoms: _77  and  _79
REMARK   35  A    between atoms: _79  and  _80
REMARK   36  A    between atoms: _79  and  _82
REMARK   37  A    between atoms: _82  and  _83
REMARK   38  A    between atoms: _87  and  _88
REMARK   39  A    between atoms: _93  and  _95
REMARK   40  A    between atoms: _95  and  _96
REMARK   41  A    between atoms: _95  and  _98
REMARK   42  A    between atoms: _98  and  _99
REMARK   43  A    between atoms: _101  and  _103
REMARK   44  A    between atoms: _103  and  _104
REMARK   45  A    between atoms: _103  and  _106
REMARK   46  A    between atoms: _106  and  _107
REMARK   47  A    between atoms: _107  and  _108
REMARK   48  A    between atoms: _108  and  _109
REMARK   49  A    between atoms: _109  and  _110
REMARK   50  A    between atoms: _114  and  _116
REMARK   51  A    between atoms: _116  and  _117
REMARK   52  A    between atoms: _120  and  _122
REMARK   53  A    between atoms: _122  and  _123
REMARK   54  A    between atoms: _122  and  _125
REMARK   55  A    between atoms: _125  and  _126
REMARK   56  A    between atoms: _126  and  _127
REMARK   57  A    between atoms: _127  and  _128
REMARK   58  A    between atoms: _128  and  _129
REMARK   59  A    between atoms: _133  and  _135
REMARK   60  A    between atoms: _135  and  _136
REMARK   61  A    between atoms: _135  and  _138
REMARK   62  A    between atoms: _138  and  _139
REMARK   63  A    between atoms: _139  and  _140
REMARK   64  A    between atoms: _140  and  _141
REMARK   65  A    between atoms: _150  and  _152
REMARK   66  A    between atoms: _152  and  _153
REMARK   67  A    between atoms: _152  and  _155
REMARK   68  A    between atoms: _155  and  _156
REMARK   69  A    between atoms: _159  and  _161
REMARK   70  A    between atoms: _161  and  _162
REMARK   71  A    between atoms: _161  and  _164
REMARK   72  A    between atoms: _168  and  _169
REMARK   73  A    between atoms: _174  and  _176
REMARK   74  A    between atoms: _176  and  _177
REMARK   75  A    between atoms: _180  and  _182
REMARK   76  A    between atoms: _182  and  _183
REMARK   77  A    between atoms: _182  and  _185
REMARK   78  A    between atoms: _185  and  _186
REMARK   79  A    between atoms: _192  and  _194
REMARK   80  A    between atoms: _194  and  _195
REMARK   81  A    between atoms: _194  and  _197
REMARK   82  A    between atoms: _197  and  _198
REMARK   83  A    between atoms: _198  and  _199
REMARK   84  A    between atoms: _202  and  _204
REMARK   85  A    between atoms: _204  and  _205
REMARK   86  A    between atoms: _204  and  _207
REMARK   87  A    between atoms: _207  and  _208
REMARK   88  A    between atoms: _211  and  _213
REMARK   89  A    between atoms: _213  and  _214
REMARK   90  A    between atoms: _213  and  _216
REMARK   91  A    between atoms: _216  and  _217
REMARK   92  A    between atoms: _220  and  _222
REMARK   93  A    between atoms: _222  and  _223
REMARK   94  A    between atoms: _225  and  _227
REMARK   95  A    between atoms: _227  and  _228
REMARK   96  A    between atoms: _230  and  _232
REMARK   97  A    between atoms: _232  and  _233
REMARK   98  A    between atoms: _235  and  _237
REMARK   99  A    between atoms: _237  and  _238
REMARK  100  A    between atoms: _241  and  _243
REMARK  101  A    between atoms: _243  and  _244
REMARK  102  A    between atoms: _243  and  _246
REMARK  103  A    between atoms: _246  and  _247
REMARK  104  A    between atoms: _253  and  _255
REMARK  105  A    between atoms: _255  and  _256
REMARK  106  A    between atoms: _255  and  _258
REMARK  107  A    between atoms: _258  and  _259
REMARK  108  A    between atoms: _262  and  _264
REMARK  109  A    between atoms: _264  and  _265
REMARK  110  A    between atoms: _264  and  _267
REMARK  111  A    between atoms: _267  and  _268
REMARK  112  A    between atoms: _271  and  _273
REMARK  113  A    between atoms: _273  and  _274
REMARK  114  A    between atoms: _273  and  _276
REMARK  115  A    between atoms: _276  and  _277
REMARK  116  A    between atoms: _280  and  _282
REMARK  117  A    between atoms: _282  and  _283
REMARK  118  A    between atoms: _282  and  _285
REMARK  119  A    between atoms: _285  and  _286
REMARK  120  A    between atoms: _289  and  _291
REMARK  121  A    between atoms: _291  and  _292
REMARK  122  A    between atoms: _294  and  _296
REMARK  123  A    between atoms: _296  and  _297
REMARK  124  A    between atoms: _299  and  _301
REMARK  125  A    between atoms: _301  and  _302
REMARK  126  A    between atoms: _301  and  _304
REMARK  127  A    between atoms: _304  and  _305
REMARK  128  A    between atoms: _305  and  _306
REMARK  129  A    between atoms: _309  and  _311
REMARK  130  A    between atoms: _311  and  _312
REMARK  131  A    between atoms: _311  and  _314
REMARK  132  A    between atoms: _314  and  _315
REMARK  133  A    between atoms: _318  and  _320
REMARK  134  A    between atoms: _320  and  _321
REMARK  135  A    between atoms: _320  and  _323
REMARK  136  A    between atoms: _323  and  _324
REMARK  137  A    between atoms: _330  and  _332
REMARK  138  A    between atoms: _332  and  _333
REMARK  139  A    between atoms: _332  and  _335
REMARK  140  A    between atoms: _335  and  _336
REMARK  141  A    between atoms: _339  and  _341
REMARK  142  A    between atoms: _341  and  _342
REMARK  143  A    between atoms: _341  and  _344
REMARK  144  A    between atoms: _344  and  _345
REMARK  145  A    between atoms: _345  and  _346
REMARK  146  A    between atoms: _346  and  _347
REMARK  147  A    between atoms: _347  and  _348
REMARK  148  A    between atoms: _352  and  _354
REMARK  149  A    between atoms: _354  and  _355
REMARK  150  A    between atoms: _358  and  _360
REMARK  151  A    between atoms: _360  and  _361
REMARK  152  A    between atoms: _360  and  _363
REMARK  153  A    between atoms: _363  and  _364
REMARK  154  A    between atoms: _364  and  _365
REMARK  155  A    between atoms: _368  and  _370
REMARK  156  A    between atoms: _370  and  _371
REMARK  157  A    between atoms: _370  and  _373
REMARK  158  A    between atoms: _373  and  _374
REMARK  159  A    between atoms: _374  and  _375
REMARK  160  A    between atoms: _375  and  _376
REMARK  161  A    between atoms: _376  and  _377
REMARK  162  A    between atoms: _381  and  _383
REMARK  163  A    between atoms: _383  and  _384
REMARK  164  A    between atoms: _387  and  _389
REMARK  165  A    between atoms: _389  and  _390
REMARK  166  A    between atoms: _389  and  _392
REMARK  167  A    between atoms: _392  and  _393
REMARK  168  A    between atoms: _393  and  _394
REMARK  169  A    between atoms: _394  and  _395
REMARK  170  A    between atoms: _395  and  _396
REMARK  171  A    between atoms: _400  and  _402
REMARK  172  A    between atoms: _402  and  _403
REMARK  173  A    between atoms: _402  and  _405
REMARK  174  A    between atoms: _405  and  _406
REMARK  175  A    between atoms: _409  and  _411
REMARK  176  A    between atoms: _411  and  _412
REMARK  177  A    between atoms: _411  and  _414
REMARK  178  A    between atoms: _414  and  _415
REMARK  179  A    between atoms: _415  and  _416
REMARK  180  A    between atoms: _419  and  _421
REMARK  181  A    between atoms: _421  and  _422
REMARK  182  A    between atoms: _421  and  _424
REMARK  183  A    between atoms: _424  and  _425
REMARK  184  A    between atoms: _428  and  _430
REMARK  185  A    between atoms: _430  and  _431
REMARK  186  A    between atoms: _430  and  _433
REMARK  187  A    between atoms: _433  and  _434
REMARK  188  A    between atoms: _436  and  _438
REMARK  189  A    between atoms: _438  and  _439
REMARK  190  A    between atoms: _438  and  _441
REMARK  191  A    between atoms: _441  and  _442
REMARK  192  A    between atoms: _444  and  _446
REMARK  193  A    between atoms: _446  and  _447
REMARK  194  A    between atoms: _450  and  _452
REMARK  195  A    between atoms: _452  and  _453
REMARK  196  A    between atoms: _452  and  _455
REMARK  197  A    between atoms: _455  and  _456
REMARK  198  A    between atoms: _459  and  _461
REMARK  199  A    between atoms: _461  and  _462
REMARK  200  A    between atoms: _461  and  _464
REMARK  201  A    between atoms: _467  and  _469
REMARK  202  A    between atoms: _469  and  _470
REMARK  203  A    between atoms: _472  and  _474
REMARK  204  A    between atoms: _474  and  _475
REMARK  205  A    between atoms: _477  and  _479
REMARK  206  A    between atoms: _479  and  _480
REMARK  207  A    between atoms: _479  and  _482
REMARK  208  A    between atoms: _482  and  _483
REMARK  209  A    between atoms: _483  and  _484
REMARK  210  A    between atoms: _489  and  _491
REMARK  211  A    between atoms: _491  and  _492
REMARK  212  A    between atoms: _491  and  _494
REMARK  213  A    between atoms: _494  and  _495
REMARK  214  A    between atoms: _498  and  _500
REMARK  215  A    between atoms: _500  and  _501
REMARK  216  A    between atoms: _500  and  _503
REMARK  217  A    between atoms: _503  and  _504
REMARK  218  A    between atoms: _504  and  _505
REMARK  219  A    between atoms: _505  and  _506
REMARK  220  A    between atoms: _515  and  _517
REMARK  221  A    between atoms: _517  and  _518
REMARK  222  A    between atoms: _517  and  _520
REMARK  223  A    between atoms: _520  and  _521
REMARK  224  A    between atoms: _521  and  _522
REMARK  225  A    between atoms: _525  and  _526
REMARK  226  A    between atoms: _531  and  _533
REMARK  227  A    between atoms: _533  and  _534
REMARK  228  A    between atoms: _533  and  _536
REMARK  229  A    between atoms: _539  and  _541
REMARK  230  A    between atoms: _541  and  _542
REMARK  231  A    between atoms: _541  and  _544
REMARK  232  A    between atoms: _544  and  _545
REMARK  233  A    between atoms: _545  and  _546
REMARK  234  A    between atoms: _552  and  _553
REMARK  235  A    between atoms: _558  and  _560
REMARK  236  A    between atoms: _560  and  _561
REMARK  237  A    between atoms: _560  and  _563
REMARK  238  A    between atoms: _563  and  _564
REMARK  239  A    between atoms: _567  and  _569
REMARK  240  A    between atoms: _569  and  _570
REMARK  241  A    between atoms: _569  and  _572
REMARK  242  A    between atoms: _572  and  _573
REMARK  243  A    between atoms: _573  and  _574
REMARK  244  A    between atoms: _577  and  _579
REMARK  245  A    between atoms: _579  and  _580
REMARK  246  A    between atoms: _579  and  _582
REMARK  247  A    between atoms: _585  and  _587
REMARK  248  A    between atoms: _587  and  _588
REMARK  249  A    between atoms: _591  and  _593
REMARK  250  A    between atoms: _593  and  _594
REMARK  251  A    between atoms: _593  and  _596
REMARK  252  A    between atoms: _596  and  _597
REMARK  253  A    between atoms: _597  and  _598
REMARK  254  A    between atoms: _601  and  _603
REMARK  255  A    between atoms: _603  and  _604
REMARK  256  A    between atoms: _606  and  _608
REMARK  257  A    between atoms: _608  and  _609
REMARK  258  A    between atoms: _608  and  _611
REMARK  259  A    between atoms: _611  and  _612
REMARK                            x       y       z     vdW  Elec       q    Type
REMARK                         _______ _______ _______ _____ _____    ______ ____
ROOT
ATOM      1  O   HOH     1      21.305  80.548  23.453  0.00  0.00    +0.000 OA
ENDROOT
TORSDOF 0
REMARK  Name = ../refined-set-2016/4jne/4jne_pocket.pdb
REMARK  259 active torsions:
REMARK  status: ('A' for Active; 'I' for Inactive)
REMARK    1  A    between atoms: _1  and  _3
REMARK    2  A    between atoms: _3  and  _4
REMARK    3  A    between atoms: _3  and  _6
REMARK    4  A    between atoms: _6  and  _7
REMARK    5  A    between atoms: _10  and  _12
REMARK    6  A    between atoms: _12  and  _13
REMARK    7  A    between atoms: _12  and  _15
REMARK    8  A    between atoms: _15  and  _16
REMARK    9  A    between atoms: _19  and  _21
REMARK   10  A    between atoms: _21  and  _22
REMARK   11  A    between atoms: _24  and  _26
REMARK   12  A    between atoms: _26  and  _27
REMARK   13  A    between atoms: _26  and  _29
REMARK   14  A    between atoms: _29  and  _30
REMARK   15  A    between atoms: _33  and  _35
REMARK   16  A    between atoms: _35  and  _36
REMARK   17  A    between atoms: _35  and  _38
REMARK   18  A    between atoms: _38  and  _39
REMARK   19  A    between atoms: _42  and  _44
REMARK   20  A    between atoms: _44  and  _45
REMARK   21  A    between atoms: _44  and  _47
REMARK   22  A    between atoms: _47  and  _48
REMARK   23  A    between atoms: _53  and  _55
REMARK   24  A    between atoms: _55  and  _56
REMARK   25  A    between atoms: _55  and  _58
REMARK   26  A    between atoms: _58  and  _59
REMARK   27  A    between atoms: _61  and  _63
REMARK   28  A    between atoms: _63  and  _64
REMARK   29  A    between atoms: _63  and  _66
REMARK   30  A    between atoms: _68  and  _70
REMARK   31  A    between atoms: _70  and  _71
REMARK   32  A    between atoms: _70  and  _73
REMARK   33  A    between atoms: _73  and  _74
REMARK   34  A    between atoms: _77  and  _79
REMARK   35  A    between atoms: _79  and  _80
REMARK   36  A    between atoms: _79  and  _82
REMARK   37  A    between atoms: _82  and  _83
REMARK   38  A    between atoms: _87  and  _88
REMARK   39  A    between atoms: _93  and  _95
REMARK   40  A    between atoms: _95  and  _96
REMARK   41  A    between atoms: _95  and  _98
REMARK   42  A    between atoms: _98  and  _99
REMARK   43  A    between atoms: _101  and  _103
REMARK   44  A    between atoms: _103  and  _104
REMARK   45  A    between atoms: _103  and  _106
REMARK   46  A    between atoms: _106  and  _107
REMARK   47  A    between atoms: _107  and  _108
REMARK   48  A    between atoms: _108  and  _109
REMARK   49  A    between atoms: _109  and  _110
REMARK   50  A    between atoms: _114  and  _116
REMARK   51  A    between atoms: _116  and  _117
REMARK   52  A    between atoms: _120  and  _122
REMARK   53  A    between atoms: _122  and  _123
REMARK   54  A    between atoms: _122  and  _125
REMARK   55  A    between atoms: _125  and  _126
REMARK   56  A    between atoms: _126  and  _127
REMARK   57  A    between atoms: _127  and  _128
REMARK   58  A    between atoms: _128  and  _129
REMARK   59  A    between atoms: _133  and  _135
REMARK   60  A    between atoms: _135  and  _136
REMARK   61  A    between atoms: _135  and  _138
REMARK   62  A    between atoms: _138  and  _139
REMARK   63  A    between atoms: _139  and  _140
REMARK   64  A    between atoms: _140  and  _141
REMARK   65  A    between atoms: _150  and  _152
REMARK   66  A    between atoms: _152  and  _153
REMARK   67  A    between atoms: _152  and  _155
REMARK   68  A    between atoms: _155  and  _156
REMARK   69  A    between atoms: _159  and  _161
REMARK   70  A    between atoms: _161  and  _162
REMARK   71  A    between atoms: _161  and  _164
REMARK   72  A    between atoms: _168  and  _169
REMARK   73  A    between atoms: _174  and  _176
REMARK   74  A    between atoms: _176  and  _177
REMARK   75  A    between atoms: _180  and  _182
REMARK   76  A    between atoms: _182  and  _183
REMARK   77  A    between atoms: _182  and  _185
REMARK   78  A    between atoms: _185  and  _186
REMARK   79  A    between atoms: _192  and  _194
REMARK   80  A    between atoms: _194  and  _195
REMARK   81  A    between atoms: _194  and  _197
REMARK   82  A    between atoms: _197  and  _198
REMARK   83  A    between atoms: _198  and  _199
REMARK   84  A    between atoms: _202  and  _204
REMARK   85  A    between atoms: _204  and  _205
REMARK   86  A    between atoms: _204  and  _207
REMARK   87  A    between atoms: _207  and  _208
REMARK   88  A    between atoms: _211  and  _213
REMARK   89  A    between atoms: _213  and  _214
REMARK   90  A    between atoms: _213  and  _216
REMARK   91  A    between atoms: _216  and  _217
REMARK   92  A    between atoms: _220  and  _222
REMARK   93  A    between atoms: _222  and  _223
REMARK   94  A    between atoms: _225  and  _227
REMARK   95  A    between atoms: _227  and  _228
REMARK   96  A    between atoms: _230  and  _232
REMARK   97  A    between atoms: _232  and  _233
REMARK   98  A    between atoms: _235  and  _237
REMARK   99  A    between atoms: _237  and  _238
REMARK  100  A    between atoms: _241  and  _243
REMARK  101  A    between atoms: _243  and  _244
REMARK  102  A    between atoms: _243  and  _246
REMARK  103  A    between atoms: _246  and  _247
REMARK  104  A    between atoms: _253  and  _255
REMARK  105  A    between atoms: _255  and  _256
REMARK  106  A    between atoms: _255  and  _258
REMARK  107  A    between atoms: _258  and  _259
REMARK  108  A    between atoms: _262  and  _264
REMARK  109  A    between atoms: _264  and  _265
REMARK  110  A    between atoms: _264  and  _267
REMARK  111  A    between atoms: _267  and  _268
REMARK  112  A    between atoms: _271  and  _273
REMARK  113  A    between atoms: _273  and  _274
REMARK  114  A    between atoms: _273  and  _276
REMARK  115  A    between atoms: _276  and  _277
REMARK  116  A    between atoms: _280  and  _282
REMARK  117  A    between atoms: _282  and  _283
REMARK  118  A    between atoms: _282  and  _285
REMARK  119  A    between atoms: _285  and  _286
REMARK  120  A    between atoms: _289  and  _291
REMARK  121  A    between atoms: _291  and  _292
REMARK  122  A    between atoms: _294  and  _296
REMARK  123  A    between atoms: _296  and  _297
REMARK  124  A    between atoms: _299  and  _301
REMARK  125  A    between atoms: _301  and  _302
REMARK  126  A    between atoms: _301  and  _304
REMARK  127  A    between atoms: _304  and  _305
REMARK  128  A    between atoms: _305  and  _306
REMARK  129  A    between atoms: _309  and  _311
REMARK  130  A    between atoms: _311  and  _312
REMARK  131  A    between atoms: _311  and  _314
REMARK  132  A    between atoms: _314  and  _315
REMARK  133  A    between atoms: _318  and  _320
REMARK  134  A    between atoms: _320  and  _321
REMARK  135  A    between atoms: _320  and  _323
REMARK  136  A    between atoms: _323  and  _324
REMARK  137  A    between atoms: _330  and  _332
REMARK  138  A    between atoms: _332  and  _333
REMARK  139  A    between atoms: _332  and  _335
REMARK  140  A    between atoms: _335  and  _336
REMARK  141  A    between atoms: _339  and  _341
REMARK  142  A    between atoms: _341  and  _342
REMARK  143  A    between atoms: _341  and  _344
REMARK  144  A    between atoms: _344  and  _345
REMARK  145  A    between atoms: _345  and  _346
REMARK  146  A    between atoms: _346  and  _347
REMARK  147  A    between atoms: _347  and  _348
REMARK  148  A    between atoms: _352  and  _354
REMARK  149  A    between atoms: _354  and  _355
REMARK  150  A    between atoms: _358  and  _360
REMARK  151  A    between atoms: _360  and  _361
REMARK  152  A    between atoms: _360  and  _363
REMARK  153  A    between atoms: _363  and  _364
REMARK  154  A    between atoms: _364  and  _365
REMARK  155  A    between atoms: _368  and  _370
REMARK  156  A    between atoms: _370  and  _371
REMARK  157  A    between atoms: _370  and  _373
REMARK  158  A    between atoms: _373  and  _374
REMARK  159  A    between atoms: _374  and  _375
REMARK  160  A    between atoms: _375  and  _376
REMARK  161  A    between atoms: _376  and  _377
REMARK  162  A    between atoms: _381  and  _383
REMARK  163  A    between atoms: _383  and  _384
REMARK  164  A    between atoms: _387  and  _389
REMARK  165  A    between atoms: _389  and  _390
REMARK  166  A    between atoms: _389  and  _392
REMARK  167  A    between atoms: _392  and  _393
REMARK  168  A    between atoms: _393  and  _394
REMARK  169  A    between atoms: _394  and  _395
REMARK  170  A    between atoms: _395  and  _396
REMARK  171  A    between atoms: _400  and  _402
REMARK  172  A    between atoms: _402  and  _403
REMARK  173  A    between atoms: _402  and  _405
REMARK  174  A    between atoms: _405  and  _406
REMARK  175  A    between atoms: _409  and  _411
REMARK  176  A    between atoms: _411  and  _412
REMARK  177  A    between atoms: _411  and  _414
REMARK  178  A    between atoms: _414  and  _415
REMARK  179  A    between atoms: _415  and  _416
REMARK  180  A    between atoms: _419  and  _421
REMARK  181  A    between atoms: _421  and  _422
REMARK  182  A    between atoms: _421  and  _424
REMARK  183  A    between atoms: _424  and  _425
REMARK  184  A    between atoms: _428  and  _430
REMARK  185  A    between atoms: _430  and  _431
REMARK  186  A    between atoms: _430  and  _433
REMARK  187  A    between atoms: _433  and  _434
REMARK  188  A    between atoms: _436  and  _438
REMARK  189  A    between atoms: _438  and  _439
REMARK  190  A    between atoms: _438  and  _441
REMARK  191  A    between atoms: _441  and  _442
REMARK  192  A    between atoms: _444  and  _446
REMARK  193  A    between atoms: _446  and  _447
REMARK  194  A    between atoms: _450  and  _452
REMARK  195  A    between atoms: _452  and  _453
REMARK  196  A    between atoms: _452  and  _455
REMARK  197  A    between atoms: _455  and  _456
REMARK  198  A    between atoms: _459  and  _461
REMARK  199  A    between atoms: _461  and  _462
REMARK  200  A    between atoms: _461  and  _464
REMARK  201  A    between atoms: _467  and  _469
REMARK  202  A    between atoms: _469  and  _470
REMARK  203  A    between atoms: _472  and  _474
REMARK  204  A    between atoms: _474  and  _475
REMARK  205  A    between atoms: _477  and  _479
REMARK  206  A    between atoms: _479  and  _480
REMARK  207  A    between atoms: _479  and  _482
REMARK  208  A    between atoms: _482  and  _483
REMARK  209  A    between atoms: _483  and  _484
REMARK  210  A    between atoms: _489  and  _491
REMARK  211  A    between atoms: _491  and  _492
REMARK  212  A    between atoms: _491  and  _494
REMARK  213  A    between atoms: _494  and  _495
REMARK  214  A    between atoms: _498  and  _500
REMARK  215  A    between atoms: _500  and  _501
REMARK  216  A    between atoms: _500  and  _503
REMARK  217  A    between atoms: _503  and  _504
REMARK  218  A    between atoms: _504  and  _505
REMARK  219  A    between atoms: _505  and  _506
REMARK  220  A    between atoms: _515  and  _517
REMARK  221  A    between atoms: _517  and  _518
REMARK  222  A    between atoms: _517  and  _520
REMARK  223  A    between atoms: _520  and  _521
REMARK  224  A    between atoms: _521  and  _522
REMARK  225  A    between atoms: _525  and  _526
REMARK  226  A    between atoms: _531  and  _533
REMARK  227  A    between atoms: _533  and  _534
REMARK  228  A    between atoms: _533  and  _536
REMARK  229  A    between atoms: _539  and  _541
REMARK  230  A    between atoms: _541  and  _542
REMARK  231  A    between atoms: _541  and  _544
REMARK  232  A    between atoms: _544  and  _545
REMARK  233  A    between atoms: _545  and  _546
REMARK  234  A    between atoms: _552  and  _553
REMARK  235  A    between atoms: _558  and  _560
REMARK  236  A    between atoms: _560  and  _561
REMARK  237  A    between atoms: _560  and  _563
REMARK  238  A    between atoms: _563  and  _564
REMARK  239  A    between atoms: _567  and  _569
REMARK  240  A    between atoms: _569  and  _570
REMARK  241  A    between atoms: _569  and  _572
REMARK  242  A    between atoms: _572  and  _573
REMARK  243  A    between atoms: _573  and  _574
REMARK  244  A    between atoms: _577  and  _579
REMARK  245  A    between atoms: _579  and  _580
REMARK  246  A    between atoms: _579  and  _582
REMARK  247  A    between atoms: _585  and  _587
REMARK  248  A    between atoms: _587  and  _588
REMARK  249  A    between atoms: _591  and  _593
REMARK  250  A    between atoms: _593  and  _594
REMARK  251  A    between atoms: _593  and  _596
REMARK  252  A    between atoms: _596  and  _597
REMARK  253  A    between atoms: _597  and  _598
REMARK  254  A    between atoms: _601  and  _603
REMARK  255  A    between atoms: _603  and  _604
REMARK  256  A    between atoms: _606  and  _608
REMARK  257  A    between atoms: _608  and  _609
REMARK  258  A    between atoms: _608  and  _611
REMARK  259  A    between atoms: _611  and  _612
REMARK                            x       y       z     vdW  Elec       q    Type
REMARK                         _______ _______ _______ _____ _____    ______ ____
ROOT
ATOM      1  O   HOH     1       9.707  80.528  27.511  0.00  0.00    +0.000 OA
ENDROOT
TORSDOF 0
REMARK  Name = ../refined-set-2016/4jne/4jne_pocket.pdb
REMARK  259 active torsions:
REMARK  status: ('A' for Active; 'I' for Inactive)
REMARK    1  A    between atoms: _1  and  _3
REMARK    2  A    between atoms: _3  and  _4
REMARK    3  A    between atoms: _3  and  _6
REMARK    4  A    between atoms: _6  and  _7
REMARK    5  A    between atoms: _10  and  _12
REMARK    6  A    between atoms: _12  and  _13
REMARK    7  A    between atoms: _12  and  _15
REMARK    8  A    between atoms: _15  and  _16
REMARK    9  A    between atoms: _19  and  _21
REMARK   10  A    between atoms: _21  and  _22
REMARK   11  A    between atoms: _24  and  _26
REMARK   12  A    between atoms: _26  and  _27
REMARK   13  A    between atoms: _26  and  _29
REMARK   14  A    between atoms: _29  and  _30
REMARK   15  A    between atoms: _33  and  _35
REMARK   16  A    between atoms: _35  and  _36
REMARK   17  A    between atoms: _35  and  _38
REMARK   18  A    between atoms: _38  and  _39
REMARK   19  A    between atoms: _42  and  _44
REMARK   20  A    between atoms: _44  and  _45
REMARK   21  A    between atoms: _44  and  _47
REMARK   22  A    between atoms: _47  and  _48
REMARK   23  A    between atoms: _53  and  _55
REMARK   24  A    between atoms: _55  and  _56
REMARK   25  A    between atoms: _55  and  _58
REMARK   26  A    between atoms: _58  and  _59
REMARK   27  A    between atoms: _61  and  _63
REMARK   28  A    between atoms: _63  and  _64
REMARK   29  A    between atoms: _63  and  _66
REMARK   30  A    between atoms: _68  and  _70
REMARK   31  A    between atoms: _70  and  _71
REMARK   32  A    between atoms: _70  and  _73
REMARK   33  A    between atoms: _73  and  _74
REMARK   34  A    between atoms: _77  and  _79
REMARK   35  A    between atoms: _79  and  _80
REMARK   36  A    between atoms: _79  and  _82
REMARK   37  A    between atoms: _82  and  _83
REMARK   38  A    between atoms: _87  and  _88
REMARK   39  A    between atoms: _93  and  _95
REMARK   40  A    between atoms: _95  and  _96
REMARK   41  A    between atoms: _95  and  _98
REMARK   42  A    between atoms: _98  and  _99
REMARK   43  A    between atoms: _101  and  _103
REMARK   44  A    between atoms: _103  and  _104
REMARK   45  A    between atoms: _103  and  _106
REMARK   46  A    between atoms: _106  and  _107
REMARK   47  A    between atoms: _107  and  _108
REMARK   48  A    between atoms: _108  and  _109
REMARK   49  A    between atoms: _109  and  _110
REMARK   50  A    between atoms: _114  and  _116
REMARK   51  A    between atoms: _116  and  _117
REMARK   52  A    between atoms: _120  and  _122
REMARK   53  A    between atoms: _122  and  _123
REMARK   54  A    between atoms: _122  and  _125
REMARK   55  A    between atoms: _125  and  _126
REMARK   56  A    between atoms: _126  and  _127
REMARK   57  A    between atoms: _127  and  _128
REMARK   58  A    between atoms: _128  and  _129
REMARK   59  A    between atoms: _133  and  _135
REMARK   60  A    between atoms: _135  and  _136
REMARK   61  A    between atoms: _135  and  _138
REMARK   62  A    between atoms: _138  and  _139
REMARK   63  A    between atoms: _139  and  _140
REMARK   64  A    between atoms: _140  and  _141
REMARK   65  A    between atoms: _150  and  _152
REMARK   66  A    between atoms: _152  and  _153
REMARK   67  A    between atoms: _152  and  _155
REMARK   68  A    between atoms: _155  and  _156
REMARK   69  A    between atoms: _159  and  _161
REMARK   70  A    between atoms: _161  and  _162
REMARK   71  A    between atoms: _161  and  _164
REMARK   72  A    between atoms: _168  and  _169
REMARK   73  A    between atoms: _174  and  _176
REMARK   74  A    between atoms: _176  and  _177
REMARK   75  A    between atoms: _180  and  _182
REMARK   76  A    between atoms: _182  and  _183
REMARK   77  A    between atoms: _182  and  _185
REMARK   78  A    between atoms: _185  and  _186
REMARK   79  A    between atoms: _192  and  _194
REMARK   80  A    between atoms: _194  and  _195
REMARK   81  A    between atoms: _194  and  _197
REMARK   82  A    between atoms: _197  and  _198
REMARK   83  A    between atoms: _198  and  _199
REMARK   84  A    between atoms: _202  and  _204
REMARK   85  A    between atoms: _204  and  _205
REMARK   86  A    between atoms: _204  and  _207
REMARK   87  A    between atoms: _207  and  _208
REMARK   88  A    between atoms: _211  and  _213
REMARK   89  A    between atoms: _213  and  _214
REMARK   90  A    between atoms: _213  and  _216
REMARK   91  A    between atoms: _216  and  _217
REMARK   92  A    between atoms: _220  and  _222
REMARK   93  A    between atoms: _222  and  _223
REMARK   94  A    between atoms: _225  and  _227
REMARK   95  A    between atoms: _227  and  _228
REMARK   96  A    between atoms: _230  and  _232
REMARK   97  A    between atoms: _232  and  _233
REMARK   98  A    between atoms: _235  and  _237
REMARK   99  A    between atoms: _237  and  _238
REMARK  100  A    between atoms: _241  and  _243
REMARK  101  A    between atoms: _243  and  _244
REMARK  102  A    between atoms: _243  and  _246
REMARK  103  A    between atoms: _246  and  _247
REMARK  104  A    between atoms: _253  and  _255
REMARK  105  A    between atoms: _255  and  _256
REMARK  106  A    between atoms: _255  and  _258
REMARK  107  A    between atoms: _258  and  _259
REMARK  108  A    between atoms: _262  and  _264
REMARK  109  A    between atoms: _264  and  _265
REMARK  110  A    between atoms: _264  and  _267
REMARK  111  A    between atoms: _267  and  _268
REMARK  112  A    between atoms: _271  and  _273
REMARK  113  A    between atoms: _273  and  _274
REMARK  114  A    between atoms: _273  and  _276
REMARK  115  A    between atoms: _276  and  _277
REMARK  116  A    between atoms: _280  and  _282
REMARK  117  A    between atoms: _282  and  _283
REMARK  118  A    between atoms: _282  and  _285
REMARK  119  A    between atoms: _285  and  _286
REMARK  120  A    between atoms: _289  and  _291
REMARK  121  A    between atoms: _291  and  _292
REMARK  122  A    between atoms: _294  and  _296
REMARK  123  A    between atoms: _296  and  _297
REMARK  124  A    between atoms: _299  and  _301
REMARK  125  A    between atoms: _301  and  _302
REMARK  126  A    between atoms: _301  and  _304
REMARK  127  A    between atoms: _304  and  _305
REMARK  128  A    between atoms: _305  and  _306
REMARK  129  A    between atoms: _309  and  _311
REMARK  130  A    between atoms: _311  and  _312
REMARK  131  A    between atoms: _311  and  _314
REMARK  132  A    between atoms: _314  and  _315
REMARK  133  A    between atoms: _318  and  _320
REMARK  134  A    between atoms: _320  and  _321
REMARK  135  A    between atoms: _320  and  _323
REMARK  136  A    between atoms: _323  and  _324
REMARK  137  A    between atoms: _330  and  _332
REMARK  138  A    between atoms: _332  and  _333
REMARK  139  A    between atoms: _332  and  _335
REMARK  140  A    between atoms: _335  and  _336
REMARK  141  A    between atoms: _339  and  _341
REMARK  142  A    between atoms: _341  and  _342
REMARK  143  A    between atoms: _341  and  _344
REMARK  144  A    between atoms: _344  and  _345
REMARK  145  A    between atoms: _345  and  _346
REMARK  146  A    between atoms: _346  and  _347
REMARK  147  A    between atoms: _347  and  _348
REMARK  148  A    between atoms: _352  and  _354
REMARK  149  A    between atoms: _354  and  _355
REMARK  150  A    between atoms: _358  and  _360
REMARK  151  A    between atoms: _360  and  _361
REMARK  152  A    between atoms: _360  and  _363
REMARK  153  A    between atoms: _363  and  _364
REMARK  154  A    between atoms: _364  and  _365
REMARK  155  A    between atoms: _368  and  _370
REMARK  156  A    between atoms: _370  and  _371
REMARK  157  A    between atoms: _370  and  _373
REMARK  158  A    between atoms: _373  and  _374
REMARK  159  A    between atoms: _374  and  _375
REMARK  160  A    between atoms: _375  and  _376
REMARK  161  A    between atoms: _376  and  _377
REMARK  162  A    between atoms: _381  and  _383
REMARK  163  A    between atoms: _383  and  _384
REMARK  164  A    between atoms: _387  and  _389
REMARK  165  A    between atoms: _389  and  _390
REMARK  166  A    between atoms: _389  and  _392
REMARK  167  A    between atoms: _392  and  _393
REMARK  168  A    between atoms: _393  and  _394
REMARK  169  A    between atoms: _394  and  _395
REMARK  170  A    between atoms: _395  and  _396
REMARK  171  A    between atoms: _400  and  _402
REMARK  172  A    between atoms: _402  and  _403
REMARK  173  A    between atoms: _402  and  _405
REMARK  174  A    between atoms: _405  and  _406
REMARK  175  A    between atoms: _409  and  _411
REMARK  176  A    between atoms: _411  and  _412
REMARK  177  A    between atoms: _411  and  _414
REMARK  178  A    between atoms: _414  and  _415
REMARK  179  A    between atoms: _415  and  _416
REMARK  180  A    between atoms: _419  and  _421
REMARK  181  A    between atoms: _421  and  _422
REMARK  182  A    between atoms: _421  and  _424
REMARK  183  A    between atoms: _424  and  _425
REMARK  184  A    between atoms: _428  and  _430
REMARK  185  A    between atoms: _430  and  _431
REMARK  186  A    between atoms: _430  and  _433
REMARK  187  A    between atoms: _433  and  _434
REMARK  188  A    between atoms: _436  and  _438
REMARK  189  A    between atoms: _438  and  _439
REMARK  190  A    between atoms: _438  and  _441
REMARK  191  A    between atoms: _441  and  _442
REMARK  192  A    between atoms: _444  and  _446
REMARK  193  A    between atoms: _446  and  _447
REMARK  194  A    between atoms: _450  and  _452
REMARK  195  A    between atoms: _452  and  _453
REMARK  196  A    between atoms: _452  and  _455
REMARK  197  A    between atoms: _455  and  _456
REMARK  198  A    between atoms: _459  and  _461
REMARK  199  A    between atoms: _461  and  _462
REMARK  200  A    between atoms: _461  and  _464
REMARK  201  A    between atoms: _467  and  _469
REMARK  202  A    between atoms: _469  and  _470
REMARK  203  A    between atoms: _472  and  _474
REMARK  204  A    between atoms: _474  and  _475
REMARK  205  A    between atoms: _477  and  _479
REMARK  206  A    between atoms: _479  and  _480
REMARK  207  A    between atoms: _479  and  _482
REMARK  208  A    between atoms: _482  and  _483
REMARK  209  A    between atoms: _483  and  _484
REMARK  210  A    between atoms: _489  and  _491
REMARK  211  A    between atoms: _491  and  _492
REMARK  212  A    between atoms: _491  and  _494
REMARK  213  A    between atoms: _494  and  _495
REMARK  214  A    between atoms: _498  and  _500
REMARK  215  A    between atoms: _500  and  _501
REMARK  216  A    between atoms: _500  and  _503
REMARK  217  A    between atoms: _503  and  _504
REMARK  218  A    between atoms: _504  and  _505
REMARK  219  A    between atoms: _505  and  _506
REMARK  220  A    between atoms: _515  and  _517
REMARK  221  A    between atoms: _517  and  _518
REMARK  222  A    between atoms: _517  and  _520
REMARK  223  A    between atoms: _520  and  _521
REMARK  224  A    between atoms: _521  and  _522
REMARK  225  A    between atoms: _525  and  _526
REMARK  226  A    between atoms: _531  and  _533
REMARK  227  A    between atoms: _533  and  _534
REMARK  228  A    between atoms: _533  and  _536
REMARK  229  A    between atoms: _539  and  _541
REMARK  230  A    between atoms: _541  and  _542
REMARK  231  A    between atoms: _541  and  _544
REMARK  232  A    between atoms: _544  and  _545
REMARK  233  A    between atoms: _545  and  _546
REMARK  234  A    between atoms: _552  and  _553
REMARK  235  A    between atoms: _558  and  _560
REMARK  236  A    between atoms: _560  and  _561
REMARK  237  A    between atoms: _560  and  _563
REMARK  238  A    between atoms: _563  and  _564
REMARK  239  A    between atoms: _567  and  _569
REMARK  240  A    between atoms: _569  and  _570
REMARK  241  A    between atoms: _569  and  _572
REMARK  242  A    between atoms: _572  and  _573
REMARK  243  A    between atoms: _573  and  _574
REMARK  244  A    between atoms: _577  and  _579
REMARK  245  A    between atoms: _579  and  _580
REMARK  246  A    between atoms: _579  and  _582
REMARK  247  A    between atoms: _585  and  _587
REMARK  248  A    between atoms: _587  and  _588
REMARK  249  A    between atoms: _591  and  _593
REMARK  250  A    between atoms: _593  and  _594
REMARK  251  A    between atoms: _593  and  _596
REMARK  252  A    between atoms: _596  and  _597
REMARK  253  A    between atoms: _597  and  _598
REMARK  254  A    between atoms: _601  and  _603
REMARK  255  A    between atoms: _603  and  _604
REMARK  256  A    between atoms: _606  and  _608
REMARK  257  A    between atoms: _608  and  _609
REMARK  258  A    between atoms: _608  and  _611
REMARK  259  A    between atoms: _611  and  _612
REMARK                            x       y       z     vdW  Elec       q    Type
REMARK                         _______ _______ _______ _____ _____    ______ ____
ROOT
ATOM      1  O   HOH     1      19.871  85.759  26.914  0.00  0.00    +0.000 OA
ENDROOT
TORSDOF 0
REMARK  Name = ../refined-set-2016/4jne/4jne_pocket.pdb
REMARK  259 active torsions:
REMARK  status: ('A' for Active; 'I' for Inactive)
REMARK    1  A    between atoms: _1  and  _3
REMARK    2  A    between atoms: _3  and  _4
REMARK    3  A    between atoms: _3  and  _6
REMARK    4  A    between atoms: _6  and  _7
REMARK    5  A    between atoms: _10  and  _12
REMARK    6  A    between atoms: _12  and  _13
REMARK    7  A    between atoms: _12  and  _15
REMARK    8  A    between atoms: _15  and  _16
REMARK    9  A    between atoms: _19  and  _21
REMARK   10  A    between atoms: _21  and  _22
REMARK   11  A    between atoms: _24  and  _26
REMARK   12  A    between atoms: _26  and  _27
REMARK   13  A    between atoms: _26  and  _29
REMARK   14  A    between atoms: _29  and  _30
REMARK   15  A    between atoms: _33  and  _35
REMARK   16  A    between atoms: _35  and  _36
REMARK   17  A    between atoms: _35  and  _38
REMARK   18  A    between atoms: _38  and  _39
REMARK   19  A    between atoms: _42  and  _44
REMARK   20  A    between atoms: _44  and  _45
REMARK   21  A    between atoms: _44  and  _47
REMARK   22  A    between atoms: _47  and  _48
REMARK   23  A    between atoms: _53  and  _55
REMARK   24  A    between atoms: _55  and  _56
REMARK   25  A    between atoms: _55  and  _58
REMARK   26  A    between atoms: _58  and  _59
REMARK   27  A    between atoms: _61  and  _63
REMARK   28  A    between atoms: _63  and  _64
REMARK   29  A    between atoms: _63  and  _66
REMARK   30  A    between atoms: _68  and  _70
REMARK   31  A    between atoms: _70  and  _71
REMARK   32  A    between atoms: _70  and  _73
REMARK   33  A    between atoms: _73  and  _74
REMARK   34  A    between atoms: _77  and  _79
REMARK   35  A    between atoms: _79  and  _80
REMARK   36  A    between atoms: _79  and  _82
REMARK   37  A    between atoms: _82  and  _83
REMARK   38  A    between atoms: _87  and  _88
REMARK   39  A    between atoms: _93  and  _95
REMARK   40  A    between atoms: _95  and  _96
REMARK   41  A    between atoms: _95  and  _98
REMARK   42  A    between atoms: _98  and  _99
REMARK   43  A    between atoms: _101  and  _103
REMARK   44  A    between atoms: _103  and  _104
REMARK   45  A    between atoms: _103  and  _106
REMARK   46  A    between atoms: _106  and  _107
REMARK   47  A    between atoms: _107  and  _108
REMARK   48  A    between atoms: _108  and  _109
REMARK   49  A    between atoms: _109  and  _110
REMARK   50  A    between atoms: _114  and  _116
REMARK   51  A    between atoms: _116  and  _117
REMARK   52  A    between atoms: _120  and  _122
REMARK   53  A    between atoms: _122  and  _123
REMARK   54  A    between atoms: _122  and  _125
REMARK   55  A    between atoms: _125  and  _126
REMARK   56  A    between atoms: _126  and  _127
REMARK   57  A    between atoms: _127  and  _128
REMARK   58  A    between atoms: _128  and  _129
REMARK   59  A    between atoms: _133  and  _135
REMARK   60  A    between atoms: _135  and  _136
REMARK   61  A    between atoms: _135  and  _138
REMARK   62  A    between atoms: _138  and  _139
REMARK   63  A    between atoms: _139  and  _140
REMARK   64  A    between atoms: _140  and  _141
REMARK   65  A    between atoms: _150  and  _152
REMARK   66  A    between atoms: _152  and  _153
REMARK   67  A    between atoms: _152  and  _155
REMARK   68  A    between atoms: _155  and  _156
REMARK   69  A    between atoms: _159  and  _161
REMARK   70  A    between atoms: _161  and  _162
REMARK   71  A    between atoms: _161  and  _164
REMARK   72  A    between atoms: _168  and  _169
REMARK   73  A    between atoms: _174  and  _176
REMARK   74  A    between atoms: _176  and  _177
REMARK   75  A    between atoms: _180  and  _182
REMARK   76  A    between atoms: _182  and  _183
REMARK   77  A    between atoms: _182  and  _185
REMARK   78  A    between atoms: _185  and  _186
REMARK   79  A    between atoms: _192  and  _194
REMARK   80  A    between atoms: _194  and  _195
REMARK   81  A    between atoms: _194  and  _197
REMARK   82  A    between atoms: _197  and  _198
REMARK   83  A    between atoms: _198  and  _199
REMARK   84  A    between atoms: _202  and  _204
REMARK   85  A    between atoms: _204  and  _205
REMARK   86  A    between atoms: _204  and  _207
REMARK   87  A    between atoms: _207  and  _208
REMARK   88  A    between atoms: _211  and  _213
REMARK   89  A    between atoms: _213  and  _214
REMARK   90  A    between atoms: _213  and  _216
REMARK   91  A    between atoms: _216  and  _217
REMARK   92  A    between atoms: _220  and  _222
REMARK   93  A    between atoms: _222  and  _223
REMARK   94  A    between atoms: _225  and  _227
REMARK   95  A    between atoms: _227  and  _228
REMARK   96  A    between atoms: _230  and  _232
REMARK   97  A    between atoms: _232  and  _233
REMARK   98  A    between atoms: _235  and  _237
REMARK   99  A    between atoms: _237  and  _238
REMARK  100  A    between atoms: _241  and  _243
REMARK  101  A    between atoms: _243  and  _244
REMARK  102  A    between atoms: _243  and  _246
REMARK  103  A    between atoms: _246  and  _247
REMARK  104  A    between atoms: _253  and  _255
REMARK  105  A    between atoms: _255  and  _256
REMARK  106  A    between atoms: _255  and  _258
REMARK  107  A    between atoms: _258  and  _259
REMARK  108  A    between atoms: _262  and  _264
REMARK  109  A    between atoms: _264  and  _265
REMARK  110  A    between atoms: _264  and  _267
REMARK  111  A    between atoms: _267  and  _268
REMARK  112  A    between atoms: _271  and  _273
REMARK  113  A    between atoms: _273  and  _274
REMARK  114  A    between atoms: _273  and  _276
REMARK  115  A    between atoms: _276  and  _277
REMARK  116  A    between atoms: _280  and  _282
REMARK  117  A    between atoms: _282  and  _283
REMARK  118  A    between atoms: _282  and  _285
REMARK  119  A    between atoms: _285  and  _286
REMARK  120  A    between atoms: _289  and  _291
REMARK  121  A    between atoms: _291  and  _292
REMARK  122  A    between atoms: _294  and  _296
REMARK  123  A    between atoms: _296  and  _297
REMARK  124  A    between atoms: _299  and  _301
REMARK  125  A    between atoms: _301  and  _302
REMARK  126  A    between atoms: _301  and  _304
REMARK  127  A    between atoms: _304  and  _305
REMARK  128  A    between atoms: _305  and  _306
REMARK  129  A    between atoms: _309  and  _311
REMARK  130  A    between atoms: _311  and  _312
REMARK  131  A    between atoms: _311  and  _314
REMARK  132  A    between atoms: _314  and  _315
REMARK  133  A    between atoms: _318  and  _320
REMARK  134  A    between atoms: _320  and  _321
REMARK  135  A    between atoms: _320  and  _323
REMARK  136  A    between atoms: _323  and  _324
REMARK  137  A    between atoms: _330  and  _332
REMARK  138  A    between atoms: _332  and  _333
REMARK  139  A    between atoms: _332  and  _335
REMARK  140  A    between atoms: _335  and  _336
REMARK  141  A    between atoms: _339  and  _341
REMARK  142  A    between atoms: _341  and  _342
REMARK  143  A    between atoms: _341  and  _344
REMARK  144  A    between atoms: _344  and  _345
REMARK  145  A    between atoms: _345  and  _346
REMARK  146  A    between atoms: _346  and  _347
REMARK  147  A    between atoms: _347  and  _348
REMARK  148  A    between atoms: _352  and  _354
REMARK  149  A    between atoms: _354  and  _355
REMARK  150  A    between atoms: _358  and  _360
REMARK  151  A    between atoms: _360  and  _361
REMARK  152  A    between atoms: _360  and  _363
REMARK  153  A    between atoms: _363  and  _364
REMARK  154  A    between atoms: _364  and  _365
REMARK  155  A    between atoms: _368  and  _370
REMARK  156  A    between atoms: _370  and  _371
REMARK  157  A    between atoms: _370  and  _373
REMARK  158  A    between atoms: _373  and  _374
REMARK  159  A    between atoms: _374  and  _375
REMARK  160  A    between atoms: _375  and  _376
REMARK  161  A    between atoms: _376  and  _377
REMARK  162  A    between atoms: _381  and  _383
REMARK  163  A    between atoms: _383  and  _384
REMARK  164  A    between atoms: _387  and  _389
REMARK  165  A    between atoms: _389  and  _390
REMARK  166  A    between atoms: _389  and  _392
REMARK  167  A    between atoms: _392  and  _393
REMARK  168  A    between atoms: _393  and  _394
REMARK  169  A    between atoms: _394  and  _395
REMARK  170  A    between atoms: _395  and  _396
REMARK  171  A    between atoms: _400  and  _402
REMARK  172  A    between atoms: _402  and  _403
REMARK  173  A    between atoms: _402  and  _405
REMARK  174  A    between atoms: _405  and  _406
REMARK  175  A    between atoms: _409  and  _411
REMARK  176  A    between atoms: _411  and  _412
REMARK  177  A    between atoms: _411  and  _414
REMARK  178  A    between atoms: _414  and  _415
REMARK  179  A    between atoms: _415  and  _416
REMARK  180  A    between atoms: _419  and  _421
REMARK  181  A    between atoms: _421  and  _422
REMARK  182  A    between atoms: _421  and  _424
REMARK  183  A    between atoms: _424  and  _425
REMARK  184  A    between atoms: _428  and  _430
REMARK  185  A    between atoms: _430  and  _431
REMARK  186  A    between atoms: _430  and  _433
REMARK  187  A    between atoms: _433  and  _434
REMARK  188  A    between atoms: _436  and  _438
REMARK  189  A    between atoms: _438  and  _439
REMARK  190  A    between atoms: _438  and  _441
REMARK  191  A    between atoms: _441  and  _442
REMARK  192  A    between atoms: _444  and  _446
REMARK  193  A    between atoms: _446  and  _447
REMARK  194  A    between atoms: _450  and  _452
REMARK  195  A    between atoms: _452  and  _453
REMARK  196  A    between atoms: _452  and  _455
REMARK  197  A    between atoms: _455  and  _456
REMARK  198  A    between atoms: _459  and  _461
REMARK  199  A    between atoms: _461  and  _462
REMARK  200  A    between atoms: _461  and  _464
REMARK  201  A    between atoms: _467  and  _469
REMARK  202  A    between atoms: _469  and  _470
REMARK  203  A    between atoms: _472  and  _474
REMARK  204  A    between atoms: _474  and  _475
REMARK  205  A    between atoms: _477  and  _479
REMARK  206  A    between atoms: _479  and  _480
REMARK  207  A    between atoms: _479  and  _482
REMARK  208  A    between atoms: _482  and  _483
REMARK  209  A    between atoms: _483  and  _484
REMARK  210  A    between atoms: _489  and  _491
REMARK  211  A    between atoms: _491  and  _492
REMARK  212  A    between atoms: _491  and  _494
REMARK  213  A    between atoms: _494  and  _495
REMARK  214  A    between atoms: _498  and  _500
REMARK  215  A    between atoms: _500  and  _501
REMARK  216  A    between atoms: _500  and  _503
REMARK  217  A    between atoms: _503  and  _504
REMARK  218  A    between atoms: _504  and  _505
REMARK  219  A    between atoms: _505  and  _506
REMARK  220  A    between atoms: _515  and  _517
REMARK  221  A    between atoms: _517  and  _518
REMARK  222  A    between atoms: _517  and  _520
REMARK  223  A    between atoms: _520  and  _521
REMARK  224  A    between atoms: _521  and  _522
REMARK  225  A    between atoms: _525  and  _526
REMARK  226  A    between atoms: _531  and  _533
REMARK  227  A    between atoms: _533  and  _534
REMARK  228  A    between atoms: _533  and  _536
REMARK  229  A    between atoms: _539  and  _541
REMARK  230  A    between atoms: _541  and  _542
REMARK  231  A    between atoms: _541  and  _544
REMARK  232  A    between atoms: _544  and  _545
REMARK  233  A    between atoms: _545  and  _546
REMARK  234  A    between atoms: _552  and  _553
REMARK  235  A    between atoms: _558  and  _560
REMARK  236  A    between atoms: _560  and  _561
REMARK  237  A    between atoms: _560  and  _563
REMARK  238  A    between atoms: _563  and  _564
REMARK  239  A    between atoms: _567  and  _569
REMARK  240  A    between atoms: _569  and  _570
REMARK  241  A    between atoms: _569  and  _572
REMARK  242  A    between atoms: _572  and  _573
REMARK  243  A    between atoms: _573  and  _574
REMARK  244  A    between atoms: _577  and  _579
REMARK  245  A    between atoms: _579  and  _580
REMARK  246  A    between atoms: _579  and  _582
REMARK  247  A    between atoms: _585  and  _587
REMARK  248  A    between atoms: _587  and  _588
REMARK  249  A    between atoms: _591  and  _593
REMARK  250  A    between atoms: _593  and  _594
REMARK  251  A    between atoms: _593  and  _596
REMARK  252  A    between atoms: _596  and  _597
REMARK  253  A    between atoms: _597  and  _598
REMARK  254  A    between atoms: _601  and  _603
REMARK  255  A    between atoms: _603  and  _604
REMARK  256  A    between atoms: _606  and  _608
REMARK  257  A    between atoms: _608  and  _609
REMARK  258  A    between atoms: _608  and  _611
REMARK  259  A    between atoms: _611  and  _612
REMARK                            x       y       z     vdW  Elec       q    Type
REMARK                         _______ _______ _______ _____ _____    ______ ____
ROOT
ATOM      1  O   HOH     1      27.386  84.311  28.287  0.00  0.00    +0.000 OA
ENDROOT
TORSDOF 0
REMARK  Name = ../refined-set-2016/4jne/4jne_pocket.pdb
REMARK  259 active torsions:
REMARK  status: ('A' for Active; 'I' for Inactive)
REMARK    1  A    between atoms: _1  and  _3
REMARK    2  A    between atoms: _3  and  _4
REMARK    3  A    between atoms: _3  and  _6
REMARK    4  A    between atoms: _6  and  _7
REMARK    5  A    between atoms: _10  and  _12
REMARK    6  A    between atoms: _12  and  _13
REMARK    7  A    between atoms: _12  and  _15
REMARK    8  A    between atoms: _15  and  _16
REMARK    9  A    between atoms: _19  and  _21
REMARK   10  A    between atoms: _21  and  _22
REMARK   11  A    between atoms: _24  and  _26
REMARK   12  A    between atoms: _26  and  _27
REMARK   13  A    between atoms: _26  and  _29
REMARK   14  A    between atoms: _29  and  _30
REMARK   15  A    between atoms: _33  and  _35
REMARK   16  A    between atoms: _35  and  _36
REMARK   17  A    between atoms: _35  and  _38
REMARK   18  A    between atoms: _38  and  _39
REMARK   19  A    between atoms: _42  and  _44
REMARK   20  A    between atoms: _44  and  _45
REMARK   21  A    between atoms: _44  and  _47
REMARK   22  A    between atoms: _47  and  _48
REMARK   23  A    between atoms: _53  and  _55
REMARK   24  A    between atoms: _55  and  _56
REMARK   25  A    between atoms: _55  and  _58
REMARK   26  A    between atoms: _58  and  _59
REMARK   27  A    between atoms: _61  and  _63
REMARK   28  A    between atoms: _63  and  _64
REMARK   29  A    between atoms: _63  and  _66
REMARK   30  A    between atoms: _68  and  _70
REMARK   31  A    between atoms: _70  and  _71
REMARK   32  A    between atoms: _70  and  _73
REMARK   33  A    between atoms: _73  and  _74
REMARK   34  A    between atoms: _77  and  _79
REMARK   35  A    between atoms: _79  and  _80
REMARK   36  A    between atoms: _79  and  _82
REMARK   37  A    between atoms: _82  and  _83
REMARK   38  A    between atoms: _87  and  _88
REMARK   39  A    between atoms: _93  and  _95
REMARK   40  A    between atoms: _95  and  _96
REMARK   41  A    between atoms: _95  and  _98
REMARK   42  A    between atoms: _98  and  _99
REMARK   43  A    between atoms: _101  and  _103
REMARK   44  A    between atoms: _103  and  _104
REMARK   45  A    between atoms: _103  and  _106
REMARK   46  A    between atoms: _106  and  _107
REMARK   47  A    between atoms: _107  and  _108
REMARK   48  A    between atoms: _108  and  _109
REMARK   49  A    between atoms: _109  and  _110
REMARK   50  A    between atoms: _114  and  _116
REMARK   51  A    between atoms: _116  and  _117
REMARK   52  A    between atoms: _120  and  _122
REMARK   53  A    between atoms: _122  and  _123
REMARK   54  A    between atoms: _122  and  _125
REMARK   55  A    between atoms: _125  and  _126
REMARK   56  A    between atoms: _126  and  _127
REMARK   57  A    between atoms: _127  and  _128
REMARK   58  A    between atoms: _128  and  _129
REMARK   59  A    between atoms: _133  and  _135
REMARK   60  A    between atoms: _135  and  _136
REMARK   61  A    between atoms: _135  and  _138
REMARK   62  A    between atoms: _138  and  _139
REMARK   63  A    between atoms: _139  and  _140
REMARK   64  A    between atoms: _140  and  _141
REMARK   65  A    between atoms: _150  and  _152
REMARK   66  A    between atoms: _152  and  _153
REMARK   67  A    between atoms: _152  and  _155
REMARK   68  A    between atoms: _155  and  _156
REMARK   69  A    between atoms: _159  and  _161
REMARK   70  A    between atoms: _161  and  _162
REMARK   71  A    between atoms: _161  and  _164
REMARK   72  A    between atoms: _168  and  _169
REMARK   73  A    between atoms: _174  and  _176
REMARK   74  A    between atoms: _176  and  _177
REMARK   75  A    between atoms: _180  and  _182
REMARK   76  A    between atoms: _182  and  _183
REMARK   77  A    between atoms: _182  and  _185
REMARK   78  A    between atoms: _185  and  _186
REMARK   79  A    between atoms: _192  and  _194
REMARK   80  A    between atoms: _194  and  _195
REMARK   81  A    between atoms: _194  and  _197
REMARK   82  A    between atoms: _197  and  _198
REMARK   83  A    between atoms: _198  and  _199
REMARK   84  A    between atoms: _202  and  _204
REMARK   85  A    between atoms: _204  and  _205
REMARK   86  A    between atoms: _204  and  _207
REMARK   87  A    between atoms: _207  and  _208
REMARK   88  A    between atoms: _211  and  _213
REMARK   89  A    between atoms: _213  and  _214
REMARK   90  A    between atoms: _213  and  _216
REMARK   91  A    between atoms: _216  and  _217
REMARK   92  A    between atoms: _220  and  _222
REMARK   93  A    between atoms: _222  and  _223
REMARK   94  A    between atoms: _225  and  _227
REMARK   95  A    between atoms: _227  and  _228
REMARK   96  A    between atoms: _230  and  _232
REMARK   97  A    between atoms: _232  and  _233
REMARK   98  A    between atoms: _235  and  _237
REMARK   99  A    between atoms: _237  and  _238
REMARK  100  A    between atoms: _241  and  _243
REMARK  101  A    between atoms: _243  and  _244
REMARK  102  A    between atoms: _243  and  _246
REMARK  103  A    between atoms: _246  and  _247
REMARK  104  A    between atoms: _253  and  _255
REMARK  105  A    between atoms: _255  and  _256
REMARK  106  A    between atoms: _255  and  _258
REMARK  107  A    between atoms: _258  and  _259
REMARK  108  A    between atoms: _262  and  _264
REMARK  109  A    between atoms: _264  and  _265
REMARK  110  A    between atoms: _264  and  _267
REMARK  111  A    between atoms: _267  and  _268
REMARK  112  A    between atoms: _271  and  _273
REMARK  113  A    between atoms: _273  and  _274
REMARK  114  A    between atoms: _273  and  _276
REMARK  115  A    between atoms: _276  and  _277
REMARK  116  A    between atoms: _280  and  _282
REMARK  117  A    between atoms: _282  and  _283
REMARK  118  A    between atoms: _282  and  _285
REMARK  119  A    between atoms: _285  and  _286
REMARK  120  A    between atoms: _289  and  _291
REMARK  121  A    between atoms: _291  and  _292
REMARK  122  A    between atoms: _294  and  _296
REMARK  123  A    between atoms: _296  and  _297
REMARK  124  A    between atoms: _299  and  _301
REMARK  125  A    between atoms: _301  and  _302
REMARK  126  A    between atoms: _301  and  _304
REMARK  127  A    between atoms: _304  and  _305
REMARK  128  A    between atoms: _305  and  _306
REMARK  129  A    between atoms: _309  and  _311
REMARK  130  A    between atoms: _311  and  _312
REMARK  131  A    between atoms: _311  and  _314
REMARK  132  A    between atoms: _314  and  _315
REMARK  133  A    between atoms: _318  and  _320
REMARK  134  A    between atoms: _320  and  _321
REMARK  135  A    between atoms: _320  and  _323
REMARK  136  A    between atoms: _323  and  _324
REMARK  137  A    between atoms: _330  and  _332
REMARK  138  A    between atoms: _332  and  _333
REMARK  139  A    between atoms: _332  and  _335
REMARK  140  A    between atoms: _335  and  _336
REMARK  141  A    between atoms: _339  and  _341
REMARK  142  A    between atoms: _341  and  _342
REMARK  143  A    between atoms: _341  and  _344
REMARK  144  A    between atoms: _344  and  _345
REMARK  145  A    between atoms: _345  and  _346
REMARK  146  A    between atoms: _346  and  _347
REMARK  147  A    between atoms: _347  and  _348
REMARK  148  A    between atoms: _352  and  _354
REMARK  149  A    between atoms: _354  and  _355
REMARK  150  A    between atoms: _358  and  _360
REMARK  151  A    between atoms: _360  and  _361
REMARK  152  A    between atoms: _360  and  _363
REMARK  153  A    between atoms: _363  and  _364
REMARK  154  A    between atoms: _364  and  _365
REMARK  155  A    between atoms: _368  and  _370
REMARK  156  A    between atoms: _370  and  _371
REMARK  157  A    between atoms: _370  and  _373
REMARK  158  A    between atoms: _373  and  _374
REMARK  159  A    between atoms: _374  and  _375
REMARK  160  A    between atoms: _375  and  _376
REMARK  161  A    between atoms: _376  and  _377
REMARK  162  A    between atoms: _381  and  _383
REMARK  163  A    between atoms: _383  and  _384
REMARK  164  A    between atoms: _387  and  _389
REMARK  165  A    between atoms: _389  and  _390
REMARK  166  A    between atoms: _389  and  _392
REMARK  167  A    between atoms: _392  and  _393
REMARK  168  A    between atoms: _393  and  _394
REMARK  169  A    between atoms: _394  and  _395
REMARK  170  A    between atoms: _395  and  _396
REMARK  171  A    between atoms: _400  and  _402
REMARK  172  A    between atoms: _402  and  _403
REMARK  173  A    between atoms: _402  and  _405
REMARK  174  A    between atoms: _405  and  _406
REMARK  175  A    between atoms: _409  and  _411
REMARK  176  A    between atoms: _411  and  _412
REMARK  177  A    between atoms: _411  and  _414
REMARK  178  A    between atoms: _414  and  _415
REMARK  179  A    between atoms: _415  and  _416
REMARK  180  A    between atoms: _419  and  _421
REMARK  181  A    between atoms: _421  and  _422
REMARK  182  A    between atoms: _421  and  _424
REMARK  183  A    between atoms: _424  and  _425
REMARK  184  A    between atoms: _428  and  _430
REMARK  185  A    between atoms: _430  and  _431
REMARK  186  A    between atoms: _430  and  _433
REMARK  187  A    between atoms: _433  and  _434
REMARK  188  A    between atoms: _436  and  _438
REMARK  189  A    between atoms: _438  and  _439
REMARK  190  A    between atoms: _438  and  _441
REMARK  191  A    between atoms: _441  and  _442
REMARK  192  A    between atoms: _444  and  _446
REMARK  193  A    between atoms: _446  and  _447
REMARK  194  A    between atoms: _450  and  _452
REMARK  195  A    between atoms: _452  and  _453
REMARK  196  A    between atoms: _452  and  _455
REMARK  197  A    between atoms: _455  and  _456
REMARK  198  A    between atoms: _459  and  _461
REMARK  199  A    between atoms: _461  and  _462
REMARK  200  A    between atoms: _461  and  _464
REMARK  201  A    between atoms: _467  and  _469
REMARK  202  A    between atoms: _469  and  _470
REMARK  203  A    between atoms: _472  and  _474
REMARK  204  A    between atoms: _474  and  _475
REMARK  205  A    between atoms: _477  and  _479
REMARK  206  A    between atoms: _479  and  _480
REMARK  207  A    between atoms: _479  and  _482
REMARK  208  A    between atoms: _482  and  _483
REMARK  209  A    between atoms: _483  and  _484
REMARK  210  A    between atoms: _489  and  _491
REMARK  211  A    between atoms: _491  and  _492
REMARK  212  A    between atoms: _491  and  _494
REMARK  213  A    between atoms: _494  and  _495
REMARK  214  A    between atoms: _498  and  _500
REMARK  215  A    between atoms: _500  and  _501
REMARK  216  A    between atoms: _500  and  _503
REMARK  217  A    between atoms: _503  and  _504
REMARK  218  A    between atoms: _504  and  _505
REMARK  219  A    between atoms: _505  and  _506
REMARK  220  A    between atoms: _515  and  _517
REMARK  221  A    between atoms: _517  and  _518
REMARK  222  A    between atoms: _517  and  _520
REMARK  223  A    between atoms: _520  and  _521
REMARK  224  A    between atoms: _521  and  _522
REMARK  225  A    between atoms: _525  and  _526
REMARK  226  A    between atoms: _531  and  _533
REMARK  227  A    between atoms: _533  and  _534
REMARK  228  A    between atoms: _533  and  _536
REMARK  229  A    between atoms: _539  and  _541
REMARK  230  A    between atoms: _541  and  _542
REMARK  231  A    between atoms: _541  and  _544
REMARK  232  A    between atoms: _544  and  _545
REMARK  233  A    between atoms: _545  and  _546
REMARK  234  A    between atoms: _552  and  _553
REMARK  235  A    between atoms: _558  and  _560
REMARK  236  A    between atoms: _560  and  _561
REMARK  237  A    between atoms: _560  and  _563
REMARK  238  A    between atoms: _563  and  _564
REMARK  239  A    between atoms: _567  and  _569
REMARK  240  A    between atoms: _569  and  _570
REMARK  241  A    between atoms: _569  and  _572
REMARK  242  A    between atoms: _572  and  _573
REMARK  243  A    between atoms: _573  and  _574
REMARK  244  A    between atoms: _577  and  _579
REMARK  245  A    between atoms: _579  and  _580
REMARK  246  A    between atoms: _579  and  _582
REMARK  247  A    between atoms: _585  and  _587
REMARK  248  A    between atoms: _587  and  _588
REMARK  249  A    between atoms: _591  and  _593
REMARK  250  A    between atoms: _593  and  _594
REMARK  251  A    between atoms: _593  and  _596
REMARK  252  A    between atoms: _596  and  _597
REMARK  253  A    between atoms: _597  and  _598
REMARK  254  A    between atoms: _601  and  _603
REMARK  255  A    between atoms: _603  and  _604
REMARK  256  A    between atoms: _606  and  _608
REMARK  257  A    between atoms: _608  and  _609
REMARK  258  A    between atoms: _608  and  _611
REMARK  259  A    between atoms: _611  and  _612
REMARK                            x       y       z     vdW  Elec       q    Type
REMARK                         _______ _______ _______ _____ _____    ______ ____
ROOT
ATOM      1  O   HOH     1      25.189  71.009  39.167  0.00  0.00    +0.000 OA
ENDROOT
TORSDOF 0
REMARK  Name = ../refined-set-2016/4jne/4jne_pocket.pdb
REMARK  259 active torsions:
REMARK  status: ('A' for Active; 'I' for Inactive)
REMARK    1  A    between atoms: _1  and  _3
REMARK    2  A    between atoms: _3  and  _4
REMARK    3  A    between atoms: _3  and  _6
REMARK    4  A    between atoms: _6  and  _7
REMARK    5  A    between atoms: _10  and  _12
REMARK    6  A    between atoms: _12  and  _13
REMARK    7  A    between atoms: _12  and  _15
REMARK    8  A    between atoms: _15  and  _16
REMARK    9  A    between atoms: _19  and  _21
REMARK   10  A    between atoms: _21  and  _22
REMARK   11  A    between atoms: _24  and  _26
REMARK   12  A    between atoms: _26  and  _27
REMARK   13  A    between atoms: _26  and  _29
REMARK   14  A    between atoms: _29  and  _30
REMARK   15  A    between atoms: _33  and  _35
REMARK   16  A    between atoms: _35  and  _36
REMARK   17  A    between atoms: _35  and  _38
REMARK   18  A    between atoms: _38  and  _39
REMARK   19  A    between atoms: _42  and  _44
REMARK   20  A    between atoms: _44  and  _45
REMARK   21  A    between atoms: _44  and  _47
REMARK   22  A    between atoms: _47  and  _48
REMARK   23  A    between atoms: _53  and  _55
REMARK   24  A    between atoms: _55  and  _56
REMARK   25  A    between atoms: _55  and  _58
REMARK   26  A    between atoms: _58  and  _59
REMARK   27  A    between atoms: _61  and  _63
REMARK   28  A    between atoms: _63  and  _64
REMARK   29  A    between atoms: _63  and  _66
REMARK   30  A    between atoms: _68  and  _70
REMARK   31  A    between atoms: _70  and  _71
REMARK   32  A    between atoms: _70  and  _73
REMARK   33  A    between atoms: _73  and  _74
REMARK   34  A    between atoms: _77  and  _79
REMARK   35  A    between atoms: _79  and  _80
REMARK   36  A    between atoms: _79  and  _82
REMARK   37  A    between atoms: _82  and  _83
REMARK   38  A    between atoms: _87  and  _88
REMARK   39  A    between atoms: _93  and  _95
REMARK   40  A    between atoms: _95  and  _96
REMARK   41  A    between atoms: _95  and  _98
REMARK   42  A    between atoms: _98  and  _99
REMARK   43  A    between atoms: _101  and  _103
REMARK   44  A    between atoms: _103  and  _104
REMARK   45  A    between atoms: _103  and  _106
REMARK   46  A    between atoms: _106  and  _107
REMARK   47  A    between atoms: _107  and  _108
REMARK   48  A    between atoms: _108  and  _109
REMARK   49  A    between atoms: _109  and  _110
REMARK   50  A    between atoms: _114  and  _116
REMARK   51  A    between atoms: _116  and  _117
REMARK   52  A    between atoms: _120  and  _122
REMARK   53  A    between atoms: _122  and  _123
REMARK   54  A    between atoms: _122  and  _125
REMARK   55  A    between atoms: _125  and  _126
REMARK   56  A    between atoms: _126  and  _127
REMARK   57  A    between atoms: _127  and  _128
REMARK   58  A    between atoms: _128  and  _129
REMARK   59  A    between atoms: _133  and  _135
REMARK   60  A    between atoms: _135  and  _136
REMARK   61  A    between atoms: _135  and  _138
REMARK   62  A    between atoms: _138  and  _139
REMARK   63  A    between atoms: _139  and  _140
REMARK   64  A    between atoms: _140  and  _141
REMARK   65  A    between atoms: _150  and  _152
REMARK   66  A    between atoms: _152  and  _153
REMARK   67  A    between atoms: _152  and  _155
REMARK   68  A    between atoms: _155  and  _156
REMARK   69  A    between atoms: _159  and  _161
REMARK   70  A    between atoms: _161  and  _162
REMARK   71  A    between atoms: _161  and  _164
REMARK   72  A    between atoms: _168  and  _169
REMARK   73  A    between atoms: _174  and  _176
REMARK   74  A    between atoms: _176  and  _177
REMARK   75  A    between atoms: _180  and  _182
REMARK   76  A    between atoms: _182  and  _183
REMARK   77  A    between atoms: _182  and  _185
REMARK   78  A    between atoms: _185  and  _186
REMARK   79  A    between atoms: _192  and  _194
REMARK   80  A    between atoms: _194  and  _195
REMARK   81  A    between atoms: _194  and  _197
REMARK   82  A    between atoms: _197  and  _198
REMARK   83  A    between atoms: _198  and  _199
REMARK   84  A    between atoms: _202  and  _204
REMARK   85  A    between atoms: _204  and  _205
REMARK   86  A    between atoms: _204  and  _207
REMARK   87  A    between atoms: _207  and  _208
REMARK   88  A    between atoms: _211  and  _213
REMARK   89  A    between atoms: _213  and  _214
REMARK   90  A    between atoms: _213  and  _216
REMARK   91  A    between atoms: _216  and  _217
REMARK   92  A    between atoms: _220  and  _222
REMARK   93  A    between atoms: _222  and  _223
REMARK   94  A    between atoms: _225  and  _227
REMARK   95  A    between atoms: _227  and  _228
REMARK   96  A    between atoms: _230  and  _232
REMARK   97  A    between atoms: _232  and  _233
REMARK   98  A    between atoms: _235  and  _237
REMARK   99  A    between atoms: _237  and  _238
REMARK  100  A    between atoms: _241  and  _243
REMARK  101  A    between atoms: _243  and  _244
REMARK  102  A    between atoms: _243  and  _246
REMARK  103  A    between atoms: _246  and  _247
REMARK  104  A    between atoms: _253  and  _255
REMARK  105  A    between atoms: _255  and  _256
REMARK  106  A    between atoms: _255  and  _258
REMARK  107  A    between atoms: _258  and  _259
REMARK  108  A    between atoms: _262  and  _264
REMARK  109  A    between atoms: _264  and  _265
REMARK  110  A    between atoms: _264  and  _267
REMARK  111  A    between atoms: _267  and  _268
REMARK  112  A    between atoms: _271  and  _273
REMARK  113  A    between atoms: _273  and  _274
REMARK  114  A    between atoms: _273  and  _276
REMARK  115  A    between atoms: _276  and  _277
REMARK  116  A    between atoms: _280  and  _282
REMARK  117  A    between atoms: _282  and  _283
REMARK  118  A    between atoms: _282  and  _285
REMARK  119  A    between atoms: _285  and  _286
REMARK  120  A    between atoms: _289  and  _291
REMARK  121  A    between atoms: _291  and  _292
REMARK  122  A    between atoms: _294  and  _296
REMARK  123  A    between atoms: _296  and  _297
REMARK  124  A    between atoms: _299  and  _301
REMARK  125  A    between atoms: _301  and  _302
REMARK  126  A    between atoms: _301  and  _304
REMARK  127  A    between atoms: _304  and  _305
REMARK  128  A    between atoms: _305  and  _306
REMARK  129  A    between atoms: _309  and  _311
REMARK  130  A    between atoms: _311  and  _312
REMARK  131  A    between atoms: _311  and  _314
REMARK  132  A    between atoms: _314  and  _315
REMARK  133  A    between atoms: _318  and  _320
REMARK  134  A    between atoms: _320  and  _321
REMARK  135  A    between atoms: _320  and  _323
REMARK  136  A    between atoms: _323  and  _324
REMARK  137  A    between atoms: _330  and  _332
REMARK  138  A    between atoms: _332  and  _333
REMARK  139  A    between atoms: _332  and  _335
REMARK  140  A    between atoms: _335  and  _336
REMARK  141  A    between atoms: _339  and  _341
REMARK  142  A    between atoms: _341  and  _342
REMARK  143  A    between atoms: _341  and  _344
REMARK  144  A    between atoms: _344  and  _345
REMARK  145  A    between atoms: _345  and  _346
REMARK  146  A    between atoms: _346  and  _347
REMARK  147  A    between atoms: _347  and  _348
REMARK  148  A    between atoms: _352  and  _354
REMARK  149  A    between atoms: _354  and  _355
REMARK  150  A    between atoms: _358  and  _360
REMARK  151  A    between atoms: _360  and  _361
REMARK  152  A    between atoms: _360  and  _363
REMARK  153  A    between atoms: _363  and  _364
REMARK  154  A    between atoms: _364  and  _365
REMARK  155  A    between atoms: _368  and  _370
REMARK  156  A    between atoms: _370  and  _371
REMARK  157  A    between atoms: _370  and  _373
REMARK  158  A    between atoms: _373  and  _374
REMARK  159  A    between atoms: _374  and  _375
REMARK  160  A    between atoms: _375  and  _376
REMARK  161  A    between atoms: _376  and  _377
REMARK  162  A    between atoms: _381  and  _383
REMARK  163  A    between atoms: _383  and  _384
REMARK  164  A    between atoms: _387  and  _389
REMARK  165  A    between atoms: _389  and  _390
REMARK  166  A    between atoms: _389  and  _392
REMARK  167  A    between atoms: _392  and  _393
REMARK  168  A    between atoms: _393  and  _394
REMARK  169  A    between atoms: _394  and  _395
REMARK  170  A    between atoms: _395  and  _396
REMARK  171  A    between atoms: _400  and  _402
REMARK  172  A    between atoms: _402  and  _403
REMARK  173  A    between atoms: _402  and  _405
REMARK  174  A    between atoms: _405  and  _406
REMARK  175  A    between atoms: _409  and  _411
REMARK  176  A    between atoms: _411  and  _412
REMARK  177  A    between atoms: _411  and  _414
REMARK  178  A    between atoms: _414  and  _415
REMARK  179  A    between atoms: _415  and  _416
REMARK  180  A    between atoms: _419  and  _421
REMARK  181  A    between atoms: _421  and  _422
REMARK  182  A    between atoms: _421  and  _424
REMARK  183  A    between atoms: _424  and  _425
REMARK  184  A    between atoms: _428  and  _430
REMARK  185  A    between atoms: _430  and  _431
REMARK  186  A    between atoms: _430  and  _433
REMARK  187  A    between atoms: _433  and  _434
REMARK  188  A    between atoms: _436  and  _438
REMARK  189  A    between atoms: _438  and  _439
REMARK  190  A    between atoms: _438  and  _441
REMARK  191  A    between atoms: _441  and  _442
REMARK  192  A    between atoms: _444  and  _446
REMARK  193  A    between atoms: _446  and  _447
REMARK  194  A    between atoms: _450  and  _452
REMARK  195  A    between atoms: _452  and  _453
REMARK  196  A    between atoms: _452  and  _455
REMARK  197  A    between atoms: _455  and  _456
REMARK  198  A    between atoms: _459  and  _461
REMARK  199  A    between atoms: _461  and  _462
REMARK  200  A    between atoms: _461  and  _464
REMARK  201  A    between atoms: _467  and  _469
REMARK  202  A    between atoms: _469  and  _470
REMARK  203  A    between atoms: _472  and  _474
REMARK  204  A    between atoms: _474  and  _475
REMARK  205  A    between atoms: _477  and  _479
REMARK  206  A    between atoms: _479  and  _480
REMARK  207  A    between atoms: _479  and  _482
REMARK  208  A    between atoms: _482  and  _483
REMARK  209  A    between atoms: _483  and  _484
REMARK  210  A    between atoms: _489  and  _491
REMARK  211  A    between atoms: _491  and  _492
REMARK  212  A    between atoms: _491  and  _494
REMARK  213  A    between atoms: _494  and  _495
REMARK  214  A    between atoms: _498  and  _500
REMARK  215  A    between atoms: _500  and  _501
REMARK  216  A    between atoms: _500  and  _503
REMARK  217  A    between atoms: _503  and  _504
REMARK  218  A    between atoms: _504  and  _505
REMARK  219  A    between atoms: _505  and  _506
REMARK  220  A    between atoms: _515  and  _517
REMARK  221  A    between atoms: _517  and  _518
REMARK  222  A    between atoms: _517  and  _520
REMARK  223  A    between atoms: _520  and  _521
REMARK  224  A    between atoms: _521  and  _522
REMARK  225  A    between atoms: _525  and  _526
REMARK  226  A    between atoms: _531  and  _533
REMARK  227  A    between atoms: _533  and  _534
REMARK  228  A    between atoms: _533  and  _536
REMARK  229  A    between atoms: _539  and  _541
REMARK  230  A    between atoms: _541  and  _542
REMARK  231  A    between atoms: _541  and  _544
REMARK  232  A    between atoms: _544  and  _545
REMARK  233  A    between atoms: _545  and  _546
REMARK  234  A    between atoms: _552  and  _553
REMARK  235  A    between atoms: _558  and  _560
REMARK  236  A    between atoms: _560  and  _561
REMARK  237  A    between atoms: _560  and  _563
REMARK  238  A    between atoms: _563  and  _564
REMARK  239  A    between atoms: _567  and  _569
REMARK  240  A    between atoms: _569  and  _570
REMARK  241  A    between atoms: _569  and  _572
REMARK  242  A    between atoms: _572  and  _573
REMARK  243  A    between atoms: _573  and  _574
REMARK  244  A    between atoms: _577  and  _579
REMARK  245  A    between atoms: _579  and  _580
REMARK  246  A    between atoms: _579  and  _582
REMARK  247  A    between atoms: _585  and  _587
REMARK  248  A    between atoms: _587  and  _588
REMARK  249  A    between atoms: _591  and  _593
REMARK  250  A    between atoms: _593  and  _594
REMARK  251  A    between atoms: _593  and  _596
REMARK  252  A    between atoms: _596  and  _597
REMARK  253  A    between atoms: _597  and  _598
REMARK  254  A    between atoms: _601  and  _603
REMARK  255  A    between atoms: _603  and  _604
REMARK  256  A    between atoms: _606  and  _608
REMARK  257  A    between atoms: _608  and  _609
REMARK  258  A    between atoms: _608  and  _611
REMARK  259  A    between atoms: _611  and  _612
REMARK                            x       y       z     vdW  Elec       q    Type
REMARK                         _______ _______ _______ _____ _____    ______ ____
ROOT
ATOM      1  O   HOH     1      22.610  81.781  25.222  0.00  0.00    +0.000 OA
ENDROOT
TORSDOF 0
REMARK  Name = ../refined-set-2016/4jne/4jne_pocket.pdb
REMARK  259 active torsions:
REMARK  status: ('A' for Active; 'I' for Inactive)
REMARK    1  A    between atoms: _1  and  _3
REMARK    2  A    between atoms: _3  and  _4
REMARK    3  A    between atoms: _3  and  _6
REMARK    4  A    between atoms: _6  and  _7
REMARK    5  A    between atoms: _10  and  _12
REMARK    6  A    between atoms: _12  and  _13
REMARK    7  A    between atoms: _12  and  _15
REMARK    8  A    between atoms: _15  and  _16
REMARK    9  A    between atoms: _19  and  _21
REMARK   10  A    between atoms: _21  and  _22
REMARK   11  A    between atoms: _24  and  _26
REMARK   12  A    between atoms: _26  and  _27
REMARK   13  A    between atoms: _26  and  _29
REMARK   14  A    between atoms: _29  and  _30
REMARK   15  A    between atoms: _33  and  _35
REMARK   16  A    between atoms: _35  and  _36
REMARK   17  A    between atoms: _35  and  _38
REMARK   18  A    between atoms: _38  and  _39
REMARK   19  A    between atoms: _42  and  _44
REMARK   20  A    between atoms: _44  and  _45
REMARK   21  A    between atoms: _44  and  _47
REMARK   22  A    between atoms: _47  and  _48
REMARK   23  A    between atoms: _53  and  _55
REMARK   24  A    between atoms: _55  and  _56
REMARK   25  A    between atoms: _55  and  _58
REMARK   26  A    between atoms: _58  and  _59
REMARK   27  A    between atoms: _61  and  _63
REMARK   28  A    between atoms: _63  and  _64
REMARK   29  A    between atoms: _63  and  _66
REMARK   30  A    between atoms: _68  and  _70
REMARK   31  A    between atoms: _70  and  _71
REMARK   32  A    between atoms: _70  and  _73
REMARK   33  A    between atoms: _73  and  _74
REMARK   34  A    between atoms: _77  and  _79
REMARK   35  A    between atoms: _79  and  _80
REMARK   36  A    between atoms: _79  and  _82
REMARK   37  A    between atoms: _82  and  _83
REMARK   38  A    between atoms: _87  and  _88
REMARK   39  A    between atoms: _93  and  _95
REMARK   40  A    between atoms: _95  and  _96
REMARK   41  A    between atoms: _95  and  _98
REMARK   42  A    between atoms: _98  and  _99
REMARK   43  A    between atoms: _101  and  _103
REMARK   44  A    between atoms: _103  and  _104
REMARK   45  A    between atoms: _103  and  _106
REMARK   46  A    between atoms: _106  and  _107
REMARK   47  A    between atoms: _107  and  _108
REMARK   48  A    between atoms: _108  and  _109
REMARK   49  A    between atoms: _109  and  _110
REMARK   50  A    between atoms: _114  and  _116
REMARK   51  A    between atoms: _116  and  _117
REMARK   52  A    between atoms: _120  and  _122
REMARK   53  A    between atoms: _122  and  _123
REMARK   54  A    between atoms: _122  and  _125
REMARK   55  A    between atoms: _125  and  _126
REMARK   56  A    between atoms: _126  and  _127
REMARK   57  A    between atoms: _127  and  _128
REMARK   58  A    between atoms: _128  and  _129
REMARK   59  A    between atoms: _133  and  _135
REMARK   60  A    between atoms: _135  and  _136
REMARK   61  A    between atoms: _135  and  _138
REMARK   62  A    between atoms: _138  and  _139
REMARK   63  A    between atoms: _139  and  _140
REMARK   64  A    between atoms: _140  and  _141
REMARK   65  A    between atoms: _150  and  _152
REMARK   66  A    between atoms: _152  and  _153
REMARK   67  A    between atoms: _152  and  _155
REMARK   68  A    between atoms: _155  and  _156
REMARK   69  A    between atoms: _159  and  _161
REMARK   70  A    between atoms: _161  and  _162
REMARK   71  A    between atoms: _161  and  _164
REMARK   72  A    between atoms: _168  and  _169
REMARK   73  A    between atoms: _174  and  _176
REMARK   74  A    between atoms: _176  and  _177
REMARK   75  A    between atoms: _180  and  _182
REMARK   76  A    between atoms: _182  and  _183
REMARK   77  A    between atoms: _182  and  _185
REMARK   78  A    between atoms: _185  and  _186
REMARK   79  A    between atoms: _192  and  _194
REMARK   80  A    between atoms: _194  and  _195
REMARK   81  A    between atoms: _194  and  _197
REMARK   82  A    between atoms: _197  and  _198
REMARK   83  A    between atoms: _198  and  _199
REMARK   84  A    between atoms: _202  and  _204
REMARK   85  A    between atoms: _204  and  _205
REMARK   86  A    between atoms: _204  and  _207
REMARK   87  A    between atoms: _207  and  _208
REMARK   88  A    between atoms: _211  and  _213
REMARK   89  A    between atoms: _213  and  _214
REMARK   90  A    between atoms: _213  and  _216
REMARK   91  A    between atoms: _216  and  _217
REMARK   92  A    between atoms: _220  and  _222
REMARK   93  A    between atoms: _222  and  _223
REMARK   94  A    between atoms: _225  and  _227
REMARK   95  A    between atoms: _227  and  _228
REMARK   96  A    between atoms: _230  and  _232
REMARK   97  A    between atoms: _232  and  _233
REMARK   98  A    between atoms: _235  and  _237
REMARK   99  A    between atoms: _237  and  _238
REMARK  100  A    between atoms: _241  and  _243
REMARK  101  A    between atoms: _243  and  _244
REMARK  102  A    between atoms: _243  and  _246
REMARK  103  A    between atoms: _246  and  _247
REMARK  104  A    between atoms: _253  and  _255
REMARK  105  A    between atoms: _255  and  _256
REMARK  106  A    between atoms: _255  and  _258
REMARK  107  A    between atoms: _258  and  _259
REMARK  108  A    between atoms: _262  and  _264
REMARK  109  A    between atoms: _264  and  _265
REMARK  110  A    between atoms: _264  and  _267
REMARK  111  A    between atoms: _267  and  _268
REMARK  112  A    between atoms: _271  and  _273
REMARK  113  A    between atoms: _273  and  _274
REMARK  114  A    between atoms: _273  and  _276
REMARK  115  A    between atoms: _276  and  _277
REMARK  116  A    between atoms: _280  and  _282
REMARK  117  A    between atoms: _282  and  _283
REMARK  118  A    between atoms: _282  and  _285
REMARK  119  A    between atoms: _285  and  _286
REMARK  120  A    between atoms: _289  and  _291
REMARK  121  A    between atoms: _291  and  _292
REMARK  122  A    between atoms: _294  and  _296
REMARK  123  A    between atoms: _296  and  _297
REMARK  124  A    between atoms: _299  and  _301
REMARK  125  A    between atoms: _301  and  _302
REMARK  126  A    between atoms: _301  and  _304
REMARK  127  A    between atoms: _304  and  _305
REMARK  128  A    between atoms: _305  and  _306
REMARK  129  A    between atoms: _309  and  _311
REMARK  130  A    between atoms: _311  and  _312
REMARK  131  A    between atoms: _311  and  _314
REMARK  132  A    between atoms: _314  and  _315
REMARK  133  A    between atoms: _318  and  _320
REMARK  134  A    between atoms: _320  and  _321
REMARK  135  A    between atoms: _320  and  _323
REMARK  136  A    between atoms: _323  and  _324
REMARK  137  A    between atoms: _330  and  _332
REMARK  138  A    between atoms: _332  and  _333
REMARK  139  A    between atoms: _332  and  _335
REMARK  140  A    between atoms: _335  and  _336
REMARK  141  A    between atoms: _339  and  _341
REMARK  142  A    between atoms: _341  and  _342
REMARK  143  A    between atoms: _341  and  _344
REMARK  144  A    between atoms: _344  and  _345
REMARK  145  A    between atoms: _345  and  _346
REMARK  146  A    between atoms: _346  and  _347
REMARK  147  A    between atoms: _347  and  _348
REMARK  148  A    between atoms: _352  and  _354
REMARK  149  A    between atoms: _354  and  _355
REMARK  150  A    between atoms: _358  and  _360
REMARK  151  A    between atoms: _360  and  _361
REMARK  152  A    between atoms: _360  and  _363
REMARK  153  A    between atoms: _363  and  _364
REMARK  154  A    between atoms: _364  and  _365
REMARK  155  A    between atoms: _368  and  _370
REMARK  156  A    between atoms: _370  and  _371
REMARK  157  A    between atoms: _370  and  _373
REMARK  158  A    between atoms: _373  and  _374
REMARK  159  A    between atoms: _374  and  _375
REMARK  160  A    between atoms: _375  and  _376
REMARK  161  A    between atoms: _376  and  _377
REMARK  162  A    between atoms: _381  and  _383
REMARK  163  A    between atoms: _383  and  _384
REMARK  164  A    between atoms: _387  and  _389
REMARK  165  A    between atoms: _389  and  _390
REMARK  166  A    between atoms: _389  and  _392
REMARK  167  A    between atoms: _392  and  _393
REMARK  168  A    between atoms: _393  and  _394
REMARK  169  A    between atoms: _394  and  _395
REMARK  170  A    between atoms: _395  and  _396
REMARK  171  A    between atoms: _400  and  _402
REMARK  172  A    between atoms: _402  and  _403
REMARK  173  A    between atoms: _402  and  _405
REMARK  174  A    between atoms: _405  and  _406
REMARK  175  A    between atoms: _409  and  _411
REMARK  176  A    between atoms: _411  and  _412
REMARK  177  A    between atoms: _411  and  _414
REMARK  178  A    between atoms: _414  and  _415
REMARK  179  A    between atoms: _415  and  _416
REMARK  180  A    between atoms: _419  and  _421
REMARK  181  A    between atoms: _421  and  _422
REMARK  182  A    between atoms: _421  and  _424
REMARK  183  A    between atoms: _424  and  _425
REMARK  184  A    between atoms: _428  and  _430
REMARK  185  A    between atoms: _430  and  _431
REMARK  186  A    between atoms: _430  and  _433
REMARK  187  A    between atoms: _433  and  _434
REMARK  188  A    between atoms: _436  and  _438
REMARK  189  A    between atoms: _438  and  _439
REMARK  190  A    between atoms: _438  and  _441
REMARK  191  A    between atoms: _441  and  _442
REMARK  192  A    between atoms: _444  and  _446
REMARK  193  A    between atoms: _446  and  _447
REMARK  194  A    between atoms: _450  and  _452
REMARK  195  A    between atoms: _452  and  _453
REMARK  196  A    between atoms: _452  and  _455
REMARK  197  A    between atoms: _455  and  _456
REMARK  198  A    between atoms: _459  and  _461
REMARK  199  A    between atoms: _461  and  _462
REMARK  200  A    between atoms: _461  and  _464
REMARK  201  A    between atoms: _467  and  _469
REMARK  202  A    between atoms: _469  and  _470
REMARK  203  A    between atoms: _472  and  _474
REMARK  204  A    between atoms: _474  and  _475
REMARK  205  A    between atoms: _477  and  _479
REMARK  206  A    between atoms: _479  and  _480
REMARK  207  A    between atoms: _479  and  _482
REMARK  208  A    between atoms: _482  and  _483
REMARK  209  A    between atoms: _483  and  _484
REMARK  210  A    between atoms: _489  and  _491
REMARK  211  A    between atoms: _491  and  _492
REMARK  212  A    between atoms: _491  and  _494
REMARK  213  A    between atoms: _494  and  _495
REMARK  214  A    between atoms: _498  and  _500
REMARK  215  A    between atoms: _500  and  _501
REMARK  216  A    between atoms: _500  and  _503
REMARK  217  A    between atoms: _503  and  _504
REMARK  218  A    between atoms: _504  and  _505
REMARK  219  A    between atoms: _505  and  _506
REMARK  220  A    between atoms: _515  and  _517
REMARK  221  A    between atoms: _517  and  _518
REMARK  222  A    between atoms: _517  and  _520
REMARK  223  A    between atoms: _520  and  _521
REMARK  224  A    between atoms: _521  and  _522
REMARK  225  A    between atoms: _525  and  _526
REMARK  226  A    between atoms: _531  and  _533
REMARK  227  A    between atoms: _533  and  _534
REMARK  228  A    between atoms: _533  and  _536
REMARK  229  A    between atoms: _539  and  _541
REMARK  230  A    between atoms: _541  and  _542
REMARK  231  A    between atoms: _541  and  _544
REMARK  232  A    between atoms: _544  and  _545
REMARK  233  A    between atoms: _545  and  _546
REMARK  234  A    between atoms: _552  and  _553
REMARK  235  A    between atoms: _558  and  _560
REMARK  236  A    between atoms: _560  and  _561
REMARK  237  A    between atoms: _560  and  _563
REMARK  238  A    between atoms: _563  and  _564
REMARK  239  A    between atoms: _567  and  _569
REMARK  240  A    between atoms: _569  and  _570
REMARK  241  A    between atoms: _569  and  _572
REMARK  242  A    between atoms: _572  and  _573
REMARK  243  A    between atoms: _573  and  _574
REMARK  244  A    between atoms: _577  and  _579
REMARK  245  A    between atoms: _579  and  _580
REMARK  246  A    between atoms: _579  and  _582
REMARK  247  A    between atoms: _585  and  _587
REMARK  248  A    between atoms: _587  and  _588
REMARK  249  A    between atoms: _591  and  _593
REMARK  250  A    between atoms: _593  and  _594
REMARK  251  A    between atoms: _593  and  _596
REMARK  252  A    between atoms: _596  and  _597
REMARK  253  A    between atoms: _597  and  _598
REMARK  254  A    between atoms: _601  and  _603
REMARK  255  A    between atoms: _603  and  _604
REMARK  256  A    between atoms: _606  and  _608
REMARK  257  A    between atoms: _608  and  _609
REMARK  258  A    between atoms: _608  and  _611
REMARK  259  A    between atoms: _611  and  _612
REMARK                            x       y       z     vdW  Elec       q    Type
REMARK                         _______ _______ _______ _____ _____    ______ ____
ROOT
ATOM      1  O   HOH     1      27.240  73.725  32.984  0.00  0.00    +0.000 OA
ENDROOT
TORSDOF 0
REMARK  Name = ../refined-set-2016/4jne/4jne_pocket.pdb
REMARK  259 active torsions:
REMARK  status: ('A' for Active; 'I' for Inactive)
REMARK    1  A    between atoms: _1  and  _3
REMARK    2  A    between atoms: _3  and  _4
REMARK    3  A    between atoms: _3  and  _6
REMARK    4  A    between atoms: _6  and  _7
REMARK    5  A    between atoms: _10  and  _12
REMARK    6  A    between atoms: _12  and  _13
REMARK    7  A    between atoms: _12  and  _15
REMARK    8  A    between atoms: _15  and  _16
REMARK    9  A    between atoms: _19  and  _21
REMARK   10  A    between atoms: _21  and  _22
REMARK   11  A    between atoms: _24  and  _26
REMARK   12  A    between atoms: _26  and  _27
REMARK   13  A    between atoms: _26  and  _29
REMARK   14  A    between atoms: _29  and  _30
REMARK   15  A    between atoms: _33  and  _35
REMARK   16  A    between atoms: _35  and  _36
REMARK   17  A    between atoms: _35  and  _38
REMARK   18  A    between atoms: _38  and  _39
REMARK   19  A    between atoms: _42  and  _44
REMARK   20  A    between atoms: _44  and  _45
REMARK   21  A    between atoms: _44  and  _47
REMARK   22  A    between atoms: _47  and  _48
REMARK   23  A    between atoms: _53  and  _55
REMARK   24  A    between atoms: _55  and  _56
REMARK   25  A    between atoms: _55  and  _58
REMARK   26  A    between atoms: _58  and  _59
REMARK   27  A    between atoms: _61  and  _63
REMARK   28  A    between atoms: _63  and  _64
REMARK   29  A    between atoms: _63  and  _66
REMARK   30  A    between atoms: _68  and  _70
REMARK   31  A    between atoms: _70  and  _71
REMARK   32  A    between atoms: _70  and  _73
REMARK   33  A    between atoms: _73  and  _74
REMARK   34  A    between atoms: _77  and  _79
REMARK   35  A    between atoms: _79  and  _80
REMARK   36  A    between atoms: _79  and  _82
REMARK   37  A    between atoms: _82  and  _83
REMARK   38  A    between atoms: _87  and  _88
REMARK   39  A    between atoms: _93  and  _95
REMARK   40  A    between atoms: _95  and  _96
REMARK   41  A    between atoms: _95  and  _98
REMARK   42  A    between atoms: _98  and  _99
REMARK   43  A    between atoms: _101  and  _103
REMARK   44  A    between atoms: _103  and  _104
REMARK   45  A    between atoms: _103  and  _106
REMARK   46  A    between atoms: _106  and  _107
REMARK   47  A    between atoms: _107  and  _108
REMARK   48  A    between atoms: _108  and  _109
REMARK   49  A    between atoms: _109  and  _110
REMARK   50  A    between atoms: _114  and  _116
REMARK   51  A    between atoms: _116  and  _117
REMARK   52  A    between atoms: _120  and  _122
REMARK   53  A    between atoms: _122  and  _123
REMARK   54  A    between atoms: _122  and  _125
REMARK   55  A    between atoms: _125  and  _126
REMARK   56  A    between atoms: _126  and  _127
REMARK   57  A    between atoms: _127  and  _128
REMARK   58  A    between atoms: _128  and  _129
REMARK   59  A    between atoms: _133  and  _135
REMARK   60  A    between atoms: _135  and  _136
REMARK   61  A    between atoms: _135  and  _138
REMARK   62  A    between atoms: _138  and  _139
REMARK   63  A    between atoms: _139  and  _140
REMARK   64  A    between atoms: _140  and  _141
REMARK   65  A    between atoms: _150  and  _152
REMARK   66  A    between atoms: _152  and  _153
REMARK   67  A    between atoms: _152  and  _155
REMARK   68  A    between atoms: _155  and  _156
REMARK   69  A    between atoms: _159  and  _161
REMARK   70  A    between atoms: _161  and  _162
REMARK   71  A    between atoms: _161  and  _164
REMARK   72  A    between atoms: _168  and  _169
REMARK   73  A    between atoms: _174  and  _176
REMARK   74  A    between atoms: _176  and  _177
REMARK   75  A    between atoms: _180  and  _182
REMARK   76  A    between atoms: _182  and  _183
REMARK   77  A    between atoms: _182  and  _185
REMARK   78  A    between atoms: _185  and  _186
REMARK   79  A    between atoms: _192  and  _194
REMARK   80  A    between atoms: _194  and  _195
REMARK   81  A    between atoms: _194  and  _197
REMARK   82  A    between atoms: _197  and  _198
REMARK   83  A    between atoms: _198  and  _199
REMARK   84  A    between atoms: _202  and  _204
REMARK   85  A    between atoms: _204  and  _205
REMARK   86  A    between atoms: _204  and  _207
REMARK   87  A    between atoms: _207  and  _208
REMARK   88  A    between atoms: _211  and  _213
REMARK   89  A    between atoms: _213  and  _214
REMARK   90  A    between atoms: _213  and  _216
REMARK   91  A    between atoms: _216  and  _217
REMARK   92  A    between atoms: _220  and  _222
REMARK   93  A    between atoms: _222  and  _223
REMARK   94  A    between atoms: _225  and  _227
REMARK   95  A    between atoms: _227  and  _228
REMARK   96  A    between atoms: _230  and  _232
REMARK   97  A    between atoms: _232  and  _233
REMARK   98  A    between atoms: _235  and  _237
REMARK   99  A    between atoms: _237  and  _238
REMARK  100  A    between atoms: _241  and  _243
REMARK  101  A    between atoms: _243  and  _244
REMARK  102  A    between atoms: _243  and  _246
REMARK  103  A    between atoms: _246  and  _247
REMARK  104  A    between atoms: _253  and  _255
REMARK  105  A    between atoms: _255  and  _256
REMARK  106  A    between atoms: _255  and  _258
REMARK  107  A    between atoms: _258  and  _259
REMARK  108  A    between atoms: _262  and  _264
REMARK  109  A    between atoms: _264  and  _265
REMARK  110  A    between atoms: _264  and  _267
REMARK  111  A    between atoms: _267  and  _268
REMARK  112  A    between atoms: _271  and  _273
REMARK  113  A    between atoms: _273  and  _274
REMARK  114  A    between atoms: _273  and  _276
REMARK  115  A    between atoms: _276  and  _277
REMARK  116  A    between atoms: _280  and  _282
REMARK  117  A    between atoms: _282  and  _283
REMARK  118  A    between atoms: _282  and  _285
REMARK  119  A    between atoms: _285  and  _286
REMARK  120  A    between atoms: _289  and  _291
REMARK  121  A    between atoms: _291  and  _292
REMARK  122  A    between atoms: _294  and  _296
REMARK  123  A    between atoms: _296  and  _297
REMARK  124  A    between atoms: _299  and  _301
REMARK  125  A    between atoms: _301  and  _302
REMARK  126  A    between atoms: _301  and  _304
REMARK  127  A    between atoms: _304  and  _305
REMARK  128  A    between atoms: _305  and  _306
REMARK  129  A    between atoms: _309  and  _311
REMARK  130  A    between atoms: _311  and  _312
REMARK  131  A    between atoms: _311  and  _314
REMARK  132  A    between atoms: _314  and  _315
REMARK  133  A    between atoms: _318  and  _320
REMARK  134  A    between atoms: _320  and  _321
REMARK  135  A    between atoms: _320  and  _323
REMARK  136  A    between atoms: _323  and  _324
REMARK  137  A    between atoms: _330  and  _332
REMARK  138  A    between atoms: _332  and  _333
REMARK  139  A    between atoms: _332  and  _335
REMARK  140  A    between atoms: _335  and  _336
REMARK  141  A    between atoms: _339  and  _341
REMARK  142  A    between atoms: _341  and  _342
REMARK  143  A    between atoms: _341  and  _344
REMARK  144  A    between atoms: _344  and  _345
REMARK  145  A    between atoms: _345  and  _346
REMARK  146  A    between atoms: _346  and  _347
REMARK  147  A    between atoms: _347  and  _348
REMARK  148  A    between atoms: _352  and  _354
REMARK  149  A    between atoms: _354  and  _355
REMARK  150  A    between atoms: _358  and  _360
REMARK  151  A    between atoms: _360  and  _361
REMARK  152  A    between atoms: _360  and  _363
REMARK  153  A    between atoms: _363  and  _364
REMARK  154  A    between atoms: _364  and  _365
REMARK  155  A    between atoms: _368  and  _370
REMARK  156  A    between atoms: _370  and  _371
REMARK  157  A    between atoms: _370  and  _373
REMARK  158  A    between atoms: _373  and  _374
REMARK  159  A    between atoms: _374  and  _375
REMARK  160  A    between atoms: _375  and  _376
REMARK  161  A    between atoms: _376  and  _377
REMARK  162  A    between atoms: _381  and  _383
REMARK  163  A    between atoms: _383  and  _384
REMARK  164  A    between atoms: _387  and  _389
REMARK  165  A    between atoms: _389  and  _390
REMARK  166  A    between atoms: _389  and  _392
REMARK  167  A    between atoms: _392  and  _393
REMARK  168  A    between atoms: _393  and  _394
REMARK  169  A    between atoms: _394  and  _395
REMARK  170  A    between atoms: _395  and  _396
REMARK  171  A    between atoms: _400  and  _402
REMARK  172  A    between atoms: _402  and  _403
REMARK  173  A    between atoms: _402  and  _405
REMARK  174  A    between atoms: _405  and  _406
REMARK  175  A    between atoms: _409  and  _411
REMARK  176  A    between atoms: _411  and  _412
REMARK  177  A    between atoms: _411  and  _414
REMARK  178  A    between atoms: _414  and  _415
REMARK  179  A    between atoms: _415  and  _416
REMARK  180  A    between atoms: _419  and  _421
REMARK  181  A    between atoms: _421  and  _422
REMARK  182  A    between atoms: _421  and  _424
REMARK  183  A    between atoms: _424  and  _425
REMARK  184  A    between atoms: _428  and  _430
REMARK  185  A    between atoms: _430  and  _431
REMARK  186  A    between atoms: _430  and  _433
REMARK  187  A    between atoms: _433  and  _434
REMARK  188  A    between atoms: _436  and  _438
REMARK  189  A    between atoms: _438  and  _439
REMARK  190  A    between atoms: _438  and  _441
REMARK  191  A    between atoms: _441  and  _442
REMARK  192  A    between atoms: _444  and  _446
REMARK  193  A    between atoms: _446  and  _447
REMARK  194  A    between atoms: _450  and  _452
REMARK  195  A    between atoms: _452  and  _453
REMARK  196  A    between atoms: _452  and  _455
REMARK  197  A    between atoms: _455  and  _456
REMARK  198  A    between atoms: _459  and  _461
REMARK  199  A    between atoms: _461  and  _462
REMARK  200  A    between atoms: _461  and  _464
REMARK  201  A    between atoms: _467  and  _469
REMARK  202  A    between atoms: _469  and  _470
REMARK  203  A    between atoms: _472  and  _474
REMARK  204  A    between atoms: _474  and  _475
REMARK  205  A    between atoms: _477  and  _479
REMARK  206  A    between atoms: _479  and  _480
REMARK  207  A    between atoms: _479  and  _482
REMARK  208  A    between atoms: _482  and  _483
REMARK  209  A    between atoms: _483  and  _484
REMARK  210  A    between atoms: _489  and  _491
REMARK  211  A    between atoms: _491  and  _492
REMARK  212  A    between atoms: _491  and  _494
REMARK  213  A    between atoms: _494  and  _495
REMARK  214  A    between atoms: _498  and  _500
REMARK  215  A    between atoms: _500  and  _501
REMARK  216  A    between atoms: _500  and  _503
REMARK  217  A    between atoms: _503  and  _504
REMARK  218  A    between atoms: _504  and  _505
REMARK  219  A    between atoms: _505  and  _506
REMARK  220  A    between atoms: _515  and  _517
REMARK  221  A    between atoms: _517  and  _518
REMARK  222  A    between atoms: _517  and  _520
REMARK  223  A    between atoms: _520  and  _521
REMARK  224  A    between atoms: _521  and  _522
REMARK  225  A    between atoms: _525  and  _526
REMARK  226  A    between atoms: _531  and  _533
REMARK  227  A    between atoms: _533  and  _534
REMARK  228  A    between atoms: _533  and  _536
REMARK  229  A    between atoms: _539  and  _541
REMARK  230  A    between atoms: _541  and  _542
REMARK  231  A    between atoms: _541  and  _544
REMARK  232  A    between atoms: _544  and  _545
REMARK  233  A    between atoms: _545  and  _546
REMARK  234  A    between atoms: _552  and  _553
REMARK  235  A    between atoms: _558  and  _560
REMARK  236  A    between atoms: _560  and  _561
REMARK  237  A    between atoms: _560  and  _563
REMARK  238  A    between atoms: _563  and  _564
REMARK  239  A    between atoms: _567  and  _569
REMARK  240  A    between atoms: _569  and  _570
REMARK  241  A    between atoms: _569  and  _572
REMARK  242  A    between atoms: _572  and  _573
REMARK  243  A    between atoms: _573  and  _574
REMARK  244  A    between atoms: _577  and  _579
REMARK  245  A    between atoms: _579  and  _580
REMARK  246  A    between atoms: _579  and  _582
REMARK  247  A    between atoms: _585  and  _587
REMARK  248  A    between atoms: _587  and  _588
REMARK  249  A    between atoms: _591  and  _593
REMARK  250  A    between atoms: _593  and  _594
REMARK  251  A    between atoms: _593  and  _596
REMARK  252  A    between atoms: _596  and  _597
REMARK  253  A    between atoms: _597  and  _598
REMARK  254  A    between atoms: _601  and  _603
REMARK  255  A    between atoms: _603  and  _604
REMARK  256  A    between atoms: _606  and  _608
REMARK  257  A    between atoms: _608  and  _609
REMARK  258  A    between atoms: _608  and  _611
REMARK  259  A    between atoms: _611  and  _612
REMARK                            x       y       z     vdW  Elec       q    Type
REMARK                         _______ _______ _______ _____ _____    ______ ____
ROOT
ATOM      1  O   HOH     1      28.116  71.307  40.232  0.00  0.00    +0.000 OA
ENDROOT
TORSDOF 0
REMARK  Name = ../refined-set-2016/4jne/4jne_pocket.pdb
REMARK  259 active torsions:
REMARK  status: ('A' for Active; 'I' for Inactive)
REMARK    1  A    between atoms: _1  and  _3
REMARK    2  A    between atoms: _3  and  _4
REMARK    3  A    between atoms: _3  and  _6
REMARK    4  A    between atoms: _6  and  _7
REMARK    5  A    between atoms: _10  and  _12
REMARK    6  A    between atoms: _12  and  _13
REMARK    7  A    between atoms: _12  and  _15
REMARK    8  A    between atoms: _15  and  _16
REMARK    9  A    between atoms: _19  and  _21
REMARK   10  A    between atoms: _21  and  _22
REMARK   11  A    between atoms: _24  and  _26
REMARK   12  A    between atoms: _26  and  _27
REMARK   13  A    between atoms: _26  and  _29
REMARK   14  A    between atoms: _29  and  _30
REMARK   15  A    between atoms: _33  and  _35
REMARK   16  A    between atoms: _35  and  _36
REMARK   17  A    between atoms: _35  and  _38
REMARK   18  A    between atoms: _38  and  _39
REMARK   19  A    between atoms: _42  and  _44
REMARK   20  A    between atoms: _44  and  _45
REMARK   21  A    between atoms: _44  and  _47
REMARK   22  A    between atoms: _47  and  _48
REMARK   23  A    between atoms: _53  and  _55
REMARK   24  A    between atoms: _55  and  _56
REMARK   25  A    between atoms: _55  and  _58
REMARK   26  A    between atoms: _58  and  _59
REMARK   27  A    between atoms: _61  and  _63
REMARK   28  A    between atoms: _63  and  _64
REMARK   29  A    between atoms: _63  and  _66
REMARK   30  A    between atoms: _68  and  _70
REMARK   31  A    between atoms: _70  and  _71
REMARK   32  A    between atoms: _70  and  _73
REMARK   33  A    between atoms: _73  and  _74
REMARK   34  A    between atoms: _77  and  _79
REMARK   35  A    between atoms: _79  and  _80
REMARK   36  A    between atoms: _79  and  _82
REMARK   37  A    between atoms: _82  and  _83
REMARK   38  A    between atoms: _87  and  _88
REMARK   39  A    between atoms: _93  and  _95
REMARK   40  A    between atoms: _95  and  _96
REMARK   41  A    between atoms: _95  and  _98
REMARK   42  A    between atoms: _98  and  _99
REMARK   43  A    between atoms: _101  and  _103
REMARK   44  A    between atoms: _103  and  _104
REMARK   45  A    between atoms: _103  and  _106
REMARK   46  A    between atoms: _106  and  _107
REMARK   47  A    between atoms: _107  and  _108
REMARK   48  A    between atoms: _108  and  _109
REMARK   49  A    between atoms: _109  and  _110
REMARK   50  A    between atoms: _114  and  _116
REMARK   51  A    between atoms: _116  and  _117
REMARK   52  A    between atoms: _120  and  _122
REMARK   53  A    between atoms: _122  and  _123
REMARK   54  A    between atoms: _122  and  _125
REMARK   55  A    between atoms: _125  and  _126
REMARK   56  A    between atoms: _126  and  _127
REMARK   57  A    between atoms: _127  and  _128
REMARK   58  A    between atoms: _128  and  _129
REMARK   59  A    between atoms: _133  and  _135
REMARK   60  A    between atoms: _135  and  _136
REMARK   61  A    between atoms: _135  and  _138
REMARK   62  A    between atoms: _138  and  _139
REMARK   63  A    between atoms: _139  and  _140
REMARK   64  A    between atoms: _140  and  _141
REMARK   65  A    between atoms: _150  and  _152
REMARK   66  A    between atoms: _152  and  _153
REMARK   67  A    between atoms: _152  and  _155
REMARK   68  A    between atoms: _155  and  _156
REMARK   69  A    between atoms: _159  and  _161
REMARK   70  A    between atoms: _161  and  _162
REMARK   71  A    between atoms: _161  and  _164
REMARK   72  A    between atoms: _168  and  _169
REMARK   73  A    between atoms: _174  and  _176
REMARK   74  A    between atoms: _176  and  _177
REMARK   75  A    between atoms: _180  and  _182
REMARK   76  A    between atoms: _182  and  _183
REMARK   77  A    between atoms: _182  and  _185
REMARK   78  A    between atoms: _185  and  _186
REMARK   79  A    between atoms: _192  and  _194
REMARK   80  A    between atoms: _194  and  _195
REMARK   81  A    between atoms: _194  and  _197
REMARK   82  A    between atoms: _197  and  _198
REMARK   83  A    between atoms: _198  and  _199
REMARK   84  A    between atoms: _202  and  _204
REMARK   85  A    between atoms: _204  and  _205
REMARK   86  A    between atoms: _204  and  _207
REMARK   87  A    between atoms: _207  and  _208
REMARK   88  A    between atoms: _211  and  _213
REMARK   89  A    between atoms: _213  and  _214
REMARK   90  A    between atoms: _213  and  _216
REMARK   91  A    between atoms: _216  and  _217
REMARK   92  A    between atoms: _220  and  _222
REMARK   93  A    between atoms: _222  and  _223
REMARK   94  A    between atoms: _225  and  _227
REMARK   95  A    between atoms: _227  and  _228
REMARK   96  A    between atoms: _230  and  _232
REMARK   97  A    between atoms: _232  and  _233
REMARK   98  A    between atoms: _235  and  _237
REMARK   99  A    between atoms: _237  and  _238
REMARK  100  A    between atoms: _241  and  _243
REMARK  101  A    between atoms: _243  and  _244
REMARK  102  A    between atoms: _243  and  _246
REMARK  103  A    between atoms: _246  and  _247
REMARK  104  A    between atoms: _253  and  _255
REMARK  105  A    between atoms: _255  and  _256
REMARK  106  A    between atoms: _255  and  _258
REMARK  107  A    between atoms: _258  and  _259
REMARK  108  A    between atoms: _262  and  _264
REMARK  109  A    between atoms: _264  and  _265
REMARK  110  A    between atoms: _264  and  _267
REMARK  111  A    between atoms: _267  and  _268
REMARK  112  A    between atoms: _271  and  _273
REMARK  113  A    between atoms: _273  and  _274
REMARK  114  A    between atoms: _273  and  _276
REMARK  115  A    between atoms: _276  and  _277
REMARK  116  A    between atoms: _280  and  _282
REMARK  117  A    between atoms: _282  and  _283
REMARK  118  A    between atoms: _282  and  _285
REMARK  119  A    between atoms: _285  and  _286
REMARK  120  A    between atoms: _289  and  _291
REMARK  121  A    between atoms: _291  and  _292
REMARK  122  A    between atoms: _294  and  _296
REMARK  123  A    between atoms: _296  and  _297
REMARK  124  A    between atoms: _299  and  _301
REMARK  125  A    between atoms: _301  and  _302
REMARK  126  A    between atoms: _301  and  _304
REMARK  127  A    between atoms: _304  and  _305
REMARK  128  A    between atoms: _305  and  _306
REMARK  129  A    between atoms: _309  and  _311
REMARK  130  A    between atoms: _311  and  _312
REMARK  131  A    between atoms: _311  and  _314
REMARK  132  A    between atoms: _314  and  _315
REMARK  133  A    between atoms: _318  and  _320
REMARK  134  A    between atoms: _320  and  _321
REMARK  135  A    between atoms: _320  and  _323
REMARK  136  A    between atoms: _323  and  _324
REMARK  137  A    between atoms: _330  and  _332
REMARK  138  A    between atoms: _332  and  _333
REMARK  139  A    between atoms: _332  and  _335
REMARK  140  A    between atoms: _335  and  _336
REMARK  141  A    between atoms: _339  and  _341
REMARK  142  A    between atoms: _341  and  _342
REMARK  143  A    between atoms: _341  and  _344
REMARK  144  A    between atoms: _344  and  _345
REMARK  145  A    between atoms: _345  and  _346
REMARK  146  A    between atoms: _346  and  _347
REMARK  147  A    between atoms: _347  and  _348
REMARK  148  A    between atoms: _352  and  _354
REMARK  149  A    between atoms: _354  and  _355
REMARK  150  A    between atoms: _358  and  _360
REMARK  151  A    between atoms: _360  and  _361
REMARK  152  A    between atoms: _360  and  _363
REMARK  153  A    between atoms: _363  and  _364
REMARK  154  A    between atoms: _364  and  _365
REMARK  155  A    between atoms: _368  and  _370
REMARK  156  A    between atoms: _370  and  _371
REMARK  157  A    between atoms: _370  and  _373
REMARK  158  A    between atoms: _373  and  _374
REMARK  159  A    between atoms: _374  and  _375
REMARK  160  A    between atoms: _375  and  _376
REMARK  161  A    between atoms: _376  and  _377
REMARK  162  A    between atoms: _381  and  _383
REMARK  163  A    between atoms: _383  and  _384
REMARK  164  A    between atoms: _387  and  _389
REMARK  165  A    between atoms: _389  and  _390
REMARK  166  A    between atoms: _389  and  _392
REMARK  167  A    between atoms: _392  and  _393
REMARK  168  A    between atoms: _393  and  _394
REMARK  169  A    between atoms: _394  and  _395
REMARK  170  A    between atoms: _395  and  _396
REMARK  171  A    between atoms: _400  and  _402
REMARK  172  A    between atoms: _402  and  _403
REMARK  173  A    between atoms: _402  and  _405
REMARK  174  A    between atoms: _405  and  _406
REMARK  175  A    between atoms: _409  and  _411
REMARK  176  A    between atoms: _411  and  _412
REMARK  177  A    between atoms: _411  and  _414
REMARK  178  A    between atoms: _414  and  _415
REMARK  179  A    between atoms: _415  and  _416
REMARK  180  A    between atoms: _419  and  _421
REMARK  181  A    between atoms: _421  and  _422
REMARK  182  A    between atoms: _421  and  _424
REMARK  183  A    between atoms: _424  and  _425
REMARK  184  A    between atoms: _428  and  _430
REMARK  185  A    between atoms: _430  and  _431
REMARK  186  A    between atoms: _430  and  _433
REMARK  187  A    between atoms: _433  and  _434
REMARK  188  A    between atoms: _436  and  _438
REMARK  189  A    between atoms: _438  and  _439
REMARK  190  A    between atoms: _438  and  _441
REMARK  191  A    between atoms: _441  and  _442
REMARK  192  A    between atoms: _444  and  _446
REMARK  193  A    between atoms: _446  and  _447
REMARK  194  A    between atoms: _450  and  _452
REMARK  195  A    between atoms: _452  and  _453
REMARK  196  A    between atoms: _452  and  _455
REMARK  197  A    between atoms: _455  and  _456
REMARK  198  A    between atoms: _459  and  _461
REMARK  199  A    between atoms: _461  and  _462
REMARK  200  A    between atoms: _461  and  _464
REMARK  201  A    between atoms: _467  and  _469
REMARK  202  A    between atoms: _469  and  _470
REMARK  203  A    between atoms: _472  and  _474
REMARK  204  A    between atoms: _474  and  _475
REMARK  205  A    between atoms: _477  and  _479
REMARK  206  A    between atoms: _479  and  _480
REMARK  207  A    between atoms: _479  and  _482
REMARK  208  A    between atoms: _482  and  _483
REMARK  209  A    between atoms: _483  and  _484
REMARK  210  A    between atoms: _489  and  _491
REMARK  211  A    between atoms: _491  and  _492
REMARK  212  A    between atoms: _491  and  _494
REMARK  213  A    between atoms: _494  and  _495
REMARK  214  A    between atoms: _498  and  _500
REMARK  215  A    between atoms: _500  and  _501
REMARK  216  A    between atoms: _500  and  _503
REMARK  217  A    between atoms: _503  and  _504
REMARK  218  A    between atoms: _504  and  _505
REMARK  219  A    between atoms: _505  and  _506
REMARK  220  A    between atoms: _515  and  _517
REMARK  221  A    between atoms: _517  and  _518
REMARK  222  A    between atoms: _517  and  _520
REMARK  223  A    between atoms: _520  and  _521
REMARK  224  A    between atoms: _521  and  _522
REMARK  225  A    between atoms: _525  and  _526
REMARK  226  A    between atoms: _531  and  _533
REMARK  227  A    between atoms: _533  and  _534
REMARK  228  A    between atoms: _533  and  _536
REMARK  229  A    between atoms: _539  and  _541
REMARK  230  A    between atoms: _541  and  _542
REMARK  231  A    between atoms: _541  and  _544
REMARK  232  A    between atoms: _544  and  _545
REMARK  233  A    between atoms: _545  and  _546
REMARK  234  A    between atoms: _552  and  _553
REMARK  235  A    between atoms: _558  and  _560
REMARK  236  A    between atoms: _560  and  _561
REMARK  237  A    between atoms: _560  and  _563
REMARK  238  A    between atoms: _563  and  _564
REMARK  239  A    between atoms: _567  and  _569
REMARK  240  A    between atoms: _569  and  _570
REMARK  241  A    between atoms: _569  and  _572
REMARK  242  A    between atoms: _572  and  _573
REMARK  243  A    between atoms: _573  and  _574
REMARK  244  A    between atoms: _577  and  _579
REMARK  245  A    between atoms: _579  and  _580
REMARK  246  A    between atoms: _579  and  _582
REMARK  247  A    between atoms: _585  and  _587
REMARK  248  A    between atoms: _587  and  _588
REMARK  249  A    between atoms: _591  and  _593
REMARK  250  A    between atoms: _593  and  _594
REMARK  251  A    between atoms: _593  and  _596
REMARK  252  A    between atoms: _596  and  _597
REMARK  253  A    between atoms: _597  and  _598
REMARK  254  A    between atoms: _601  and  _603
REMARK  255  A    between atoms: _603  and  _604
REMARK  256  A    between atoms: _606  and  _608
REMARK  257  A    between atoms: _608  and  _609
REMARK  258  A    between atoms: _608  and  _611
REMARK  259  A    between atoms: _611  and  _612
REMARK                            x       y       z     vdW  Elec       q    Type
REMARK                         _______ _______ _______ _____ _____    ______ ____
ROOT
ATOM      1  O   HOH     1      27.848  68.878  37.460  0.00  0.00    +0.000 OA
ENDROOT
TORSDOF 0
REMARK  Name = ../refined-set-2016/4jne/4jne_pocket.pdb
REMARK  259 active torsions:
REMARK  status: ('A' for Active; 'I' for Inactive)
REMARK    1  A    between atoms: _1  and  _3
REMARK    2  A    between atoms: _3  and  _4
REMARK    3  A    between atoms: _3  and  _6
REMARK    4  A    between atoms: _6  and  _7
REMARK    5  A    between atoms: _10  and  _12
REMARK    6  A    between atoms: _12  and  _13
REMARK    7  A    between atoms: _12  and  _15
REMARK    8  A    between atoms: _15  and  _16
REMARK    9  A    between atoms: _19  and  _21
REMARK   10  A    between atoms: _21  and  _22
REMARK   11  A    between atoms: _24  and  _26
REMARK   12  A    between atoms: _26  and  _27
REMARK   13  A    between atoms: _26  and  _29
REMARK   14  A    between atoms: _29  and  _30
REMARK   15  A    between atoms: _33  and  _35
REMARK   16  A    between atoms: _35  and  _36
REMARK   17  A    between atoms: _35  and  _38
REMARK   18  A    between atoms: _38  and  _39
REMARK   19  A    between atoms: _42  and  _44
REMARK   20  A    between atoms: _44  and  _45
REMARK   21  A    between atoms: _44  and  _47
REMARK   22  A    between atoms: _47  and  _48
REMARK   23  A    between atoms: _53  and  _55
REMARK   24  A    between atoms: _55  and  _56
REMARK   25  A    between atoms: _55  and  _58
REMARK   26  A    between atoms: _58  and  _59
REMARK   27  A    between atoms: _61  and  _63
REMARK   28  A    between atoms: _63  and  _64
REMARK   29  A    between atoms: _63  and  _66
REMARK   30  A    between atoms: _68  and  _70
REMARK   31  A    between atoms: _70  and  _71
REMARK   32  A    between atoms: _70  and  _73
REMARK   33  A    between atoms: _73  and  _74
REMARK   34  A    between atoms: _77  and  _79
REMARK   35  A    between atoms: _79  and  _80
REMARK   36  A    between atoms: _79  and  _82
REMARK   37  A    between atoms: _82  and  _83
REMARK   38  A    between atoms: _87  and  _88
REMARK   39  A    between atoms: _93  and  _95
REMARK   40  A    between atoms: _95  and  _96
REMARK   41  A    between atoms: _95  and  _98
REMARK   42  A    between atoms: _98  and  _99
REMARK   43  A    between atoms: _101  and  _103
REMARK   44  A    between atoms: _103  and  _104
REMARK   45  A    between atoms: _103  and  _106
REMARK   46  A    between atoms: _106  and  _107
REMARK   47  A    between atoms: _107  and  _108
REMARK   48  A    between atoms: _108  and  _109
REMARK   49  A    between atoms: _109  and  _110
REMARK   50  A    between atoms: _114  and  _116
REMARK   51  A    between atoms: _116  and  _117
REMARK   52  A    between atoms: _120  and  _122
REMARK   53  A    between atoms: _122  and  _123
REMARK   54  A    between atoms: _122  and  _125
REMARK   55  A    between atoms: _125  and  _126
REMARK   56  A    between atoms: _126  and  _127
REMARK   57  A    between atoms: _127  and  _128
REMARK   58  A    between atoms: _128  and  _129
REMARK   59  A    between atoms: _133  and  _135
REMARK   60  A    between atoms: _135  and  _136
REMARK   61  A    between atoms: _135  and  _138
REMARK   62  A    between atoms: _138  and  _139
REMARK   63  A    between atoms: _139  and  _140
REMARK   64  A    between atoms: _140  and  _141
REMARK   65  A    between atoms: _150  and  _152
REMARK   66  A    between atoms: _152  and  _153
REMARK   67  A    between atoms: _152  and  _155
REMARK   68  A    between atoms: _155  and  _156
REMARK   69  A    between atoms: _159  and  _161
REMARK   70  A    between atoms: _161  and  _162
REMARK   71  A    between atoms: _161  and  _164
REMARK   72  A    between atoms: _168  and  _169
REMARK   73  A    between atoms: _174  and  _176
REMARK   74  A    between atoms: _176  and  _177
REMARK   75  A    between atoms: _180  and  _182
REMARK   76  A    between atoms: _182  and  _183
REMARK   77  A    between atoms: _182  and  _185
REMARK   78  A    between atoms: _185  and  _186
REMARK   79  A    between atoms: _192  and  _194
REMARK   80  A    between atoms: _194  and  _195
REMARK   81  A    between atoms: _194  and  _197
REMARK   82  A    between atoms: _197  and  _198
REMARK   83  A    between atoms: _198  and  _199
REMARK   84  A    between atoms: _202  and  _204
REMARK   85  A    between atoms: _204  and  _205
REMARK   86  A    between atoms: _204  and  _207
REMARK   87  A    between atoms: _207  and  _208
REMARK   88  A    between atoms: _211  and  _213
REMARK   89  A    between atoms: _213  and  _214
REMARK   90  A    between atoms: _213  and  _216
REMARK   91  A    between atoms: _216  and  _217
REMARK   92  A    between atoms: _220  and  _222
REMARK   93  A    between atoms: _222  and  _223
REMARK   94  A    between atoms: _225  and  _227
REMARK   95  A    between atoms: _227  and  _228
REMARK   96  A    between atoms: _230  and  _232
REMARK   97  A    between atoms: _232  and  _233
REMARK   98  A    between atoms: _235  and  _237
REMARK   99  A    between atoms: _237  and  _238
REMARK  100  A    between atoms: _241  and  _243
REMARK  101  A    between atoms: _243  and  _244
REMARK  102  A    between atoms: _243  and  _246
REMARK  103  A    between atoms: _246  and  _247
REMARK  104  A    between atoms: _253  and  _255
REMARK  105  A    between atoms: _255  and  _256
REMARK  106  A    between atoms: _255  and  _258
REMARK  107  A    between atoms: _258  and  _259
REMARK  108  A    between atoms: _262  and  _264
REMARK  109  A    between atoms: _264  and  _265
REMARK  110  A    between atoms: _264  and  _267
REMARK  111  A    between atoms: _267  and  _268
REMARK  112  A    between atoms: _271  and  _273
REMARK  113  A    between atoms: _273  and  _274
REMARK  114  A    between atoms: _273  and  _276
REMARK  115  A    between atoms: _276  and  _277
REMARK  116  A    between atoms: _280  and  _282
REMARK  117  A    between atoms: _282  and  _283
REMARK  118  A    between atoms: _282  and  _285
REMARK  119  A    between atoms: _285  and  _286
REMARK  120  A    between atoms: _289  and  _291
REMARK  121  A    between atoms: _291  and  _292
REMARK  122  A    between atoms: _294  and  _296
REMARK  123  A    between atoms: _296  and  _297
REMARK  124  A    between atoms: _299  and  _301
REMARK  125  A    between atoms: _301  and  _302
REMARK  126  A    between atoms: _301  and  _304
REMARK  127  A    between atoms: _304  and  _305
REMARK  128  A    between atoms: _305  and  _306
REMARK  129  A    between atoms: _309  and  _311
REMARK  130  A    between atoms: _311  and  _312
REMARK  131  A    between atoms: _311  and  _314
REMARK  132  A    between atoms: _314  and  _315
REMARK  133  A    between atoms: _318  and  _320
REMARK  134  A    between atoms: _320  and  _321
REMARK  135  A    between atoms: _320  and  _323
REMARK  136  A    between atoms: _323  and  _324
REMARK  137  A    between atoms: _330  and  _332
REMARK  138  A    between atoms: _332  and  _333
REMARK  139  A    between atoms: _332  and  _335
REMARK  140  A    between atoms: _335  and  _336
REMARK  141  A    between atoms: _339  and  _341
REMARK  142  A    between atoms: _341  and  _342
REMARK  143  A    between atoms: _341  and  _344
REMARK  144  A    between atoms: _344  and  _345
REMARK  145  A    between atoms: _345  and  _346
REMARK  146  A    between atoms: _346  and  _347
REMARK  147  A    between atoms: _347  and  _348
REMARK  148  A    between atoms: _352  and  _354
REMARK  149  A    between atoms: _354  and  _355
REMARK  150  A    between atoms: _358  and  _360
REMARK  151  A    between atoms: _360  and  _361
REMARK  152  A    between atoms: _360  and  _363
REMARK  153  A    between atoms: _363  and  _364
REMARK  154  A    between atoms: _364  and  _365
REMARK  155  A    between atoms: _368  and  _370
REMARK  156  A    between atoms: _370  and  _371
REMARK  157  A    between atoms: _370  and  _373
REMARK  158  A    between atoms: _373  and  _374
REMARK  159  A    between atoms: _374  and  _375
REMARK  160  A    between atoms: _375  and  _376
REMARK  161  A    between atoms: _376  and  _377
REMARK  162  A    between atoms: _381  and  _383
REMARK  163  A    between atoms: _383  and  _384
REMARK  164  A    between atoms: _387  and  _389
REMARK  165  A    between atoms: _389  and  _390
REMARK  166  A    between atoms: _389  and  _392
REMARK  167  A    between atoms: _392  and  _393
REMARK  168  A    between atoms: _393  and  _394
REMARK  169  A    between atoms: _394  and  _395
REMARK  170  A    between atoms: _395  and  _396
REMARK  171  A    between atoms: _400  and  _402
REMARK  172  A    between atoms: _402  and  _403
REMARK  173  A    between atoms: _402  and  _405
REMARK  174  A    between atoms: _405  and  _406
REMARK  175  A    between atoms: _409  and  _411
REMARK  176  A    between atoms: _411  and  _412
REMARK  177  A    between atoms: _411  and  _414
REMARK  178  A    between atoms: _414  and  _415
REMARK  179  A    between atoms: _415  and  _416
REMARK  180  A    between atoms: _419  and  _421
REMARK  181  A    between atoms: _421  and  _422
REMARK  182  A    between atoms: _421  and  _424
REMARK  183  A    between atoms: _424  and  _425
REMARK  184  A    between atoms: _428  and  _430
REMARK  185  A    between atoms: _430  and  _431
REMARK  186  A    between atoms: _430  and  _433
REMARK  187  A    between atoms: _433  and  _434
REMARK  188  A    between atoms: _436  and  _438
REMARK  189  A    between atoms: _438  and  _439
REMARK  190  A    between atoms: _438  and  _441
REMARK  191  A    between atoms: _441  and  _442
REMARK  192  A    between atoms: _444  and  _446
REMARK  193  A    between atoms: _446  and  _447
REMARK  194  A    between atoms: _450  and  _452
REMARK  195  A    between atoms: _452  and  _453
REMARK  196  A    between atoms: _452  and  _455
REMARK  197  A    between atoms: _455  and  _456
REMARK  198  A    between atoms: _459  and  _461
REMARK  199  A    between atoms: _461  and  _462
REMARK  200  A    between atoms: _461  and  _464
REMARK  201  A    between atoms: _467  and  _469
REMARK  202  A    between atoms: _469  and  _470
REMARK  203  A    between atoms: _472  and  _474
REMARK  204  A    between atoms: _474  and  _475
REMARK  205  A    between atoms: _477  and  _479
REMARK  206  A    between atoms: _479  and  _480
REMARK  207  A    between atoms: _479  and  _482
REMARK  208  A    between atoms: _482  and  _483
REMARK  209  A    between atoms: _483  and  _484
REMARK  210  A    between atoms: _489  and  _491
REMARK  211  A    between atoms: _491  and  _492
REMARK  212  A    between atoms: _491  and  _494
REMARK  213  A    between atoms: _494  and  _495
REMARK  214  A    between atoms: _498  and  _500
REMARK  215  A    between atoms: _500  and  _501
REMARK  216  A    between atoms: _500  and  _503
REMARK  217  A    between atoms: _503  and  _504
REMARK  218  A    between atoms: _504  and  _505
REMARK  219  A    between atoms: _505  and  _506
REMARK  220  A    between atoms: _515  and  _517
REMARK  221  A    between atoms: _517  and  _518
REMARK  222  A    between atoms: _517  and  _520
REMARK  223  A    between atoms: _520  and  _521
REMARK  224  A    between atoms: _521  and  _522
REMARK  225  A    between atoms: _525  and  _526
REMARK  226  A    between atoms: _531  and  _533
REMARK  227  A    between atoms: _533  and  _534
REMARK  228  A    between atoms: _533  and  _536
REMARK  229  A    between atoms: _539  and  _541
REMARK  230  A    between atoms: _541  and  _542
REMARK  231  A    between atoms: _541  and  _544
REMARK  232  A    between atoms: _544  and  _545
REMARK  233  A    between atoms: _545  and  _546
REMARK  234  A    between atoms: _552  and  _553
REMARK  235  A    between atoms: _558  and  _560
REMARK  236  A    between atoms: _560  and  _561
REMARK  237  A    between atoms: _560  and  _563
REMARK  238  A    between atoms: _563  and  _564
REMARK  239  A    between atoms: _567  and  _569
REMARK  240  A    between atoms: _569  and  _570
REMARK  241  A    between atoms: _569  and  _572
REMARK  242  A    between atoms: _572  and  _573
REMARK  243  A    between atoms: _573  and  _574
REMARK  244  A    between atoms: _577  and  _579
REMARK  245  A    between atoms: _579  and  _580
REMARK  246  A    between atoms: _579  and  _582
REMARK  247  A    between atoms: _585  and  _587
REMARK  248  A    between atoms: _587  and  _588
REMARK  249  A    between atoms: _591  and  _593
REMARK  250  A    between atoms: _593  and  _594
REMARK  251  A    between atoms: _593  and  _596
REMARK  252  A    between atoms: _596  and  _597
REMARK  253  A    between atoms: _597  and  _598
REMARK  254  A    between atoms: _601  and  _603
REMARK  255  A    between atoms: _603  and  _604
REMARK  256  A    between atoms: _606  and  _608
REMARK  257  A    between atoms: _608  and  _609
REMARK  258  A    between atoms: _608  and  _611
REMARK  259  A    between atoms: _611  and  _612
REMARK                            x       y       z     vdW  Elec       q    Type
REMARK                         _______ _______ _______ _____ _____    ______ ____
ROOT
ATOM      1  O   HOH     1      32.549  75.093  31.526  0.00  0.00    +0.000 OA
ENDROOT
TORSDOF 0
