REMARK  Name = ../refined-set-2016/1nli/1nli_pocket.pdb
REMARK  135 active torsions:
REMARK  status: ('A' for Active; 'I' for Inactive)
REMARK    1  A    between atoms: _1  and  _3
REMARK    2  A    between atoms: _3  and  _4
REMARK    3  A    between atoms: _3  and  _6
REMARK    4  A    between atoms: _9  and  _11
REMARK    5  A    between atoms: _11  and  _12
REMARK    6  A    between atoms: _15  and  _17
REMARK    7  A    between atoms: _17  and  _18
REMARK    8  A    between atoms: _17  and  _20
REMARK    9  A    between atoms: _20  and  _21
REMARK   10  A    between atoms: _24  and  _26
REMARK   11  A    between atoms: _26  and  _27
REMARK   12  A    between atoms: _26  and  _29
REMARK   13  A    between atoms: _29  and  _30
REMARK   14  A    between atoms: _33  and  _35
REMARK   15  A    between atoms: _35  and  _36
REMARK   16  A    between atoms: _35  and  _38
REMARK   17  A    between atoms: _38  and  _39
REMARK   18  A    between atoms: _44  and  _46
REMARK   19  A    between atoms: _46  and  _47
REMARK   20  A    between atoms: _46  and  _49
REMARK   21  A    between atoms: _52  and  _54
REMARK   22  A    between atoms: _54  and  _55
REMARK   23  A    between atoms: _54  and  _57
REMARK   24  A    between atoms: _57  and  _58
REMARK   25  A    between atoms: _63  and  _64
REMARK   26  A    between atoms: _66  and  _68
REMARK   27  A    between atoms: _68  and  _69
REMARK   28  A    between atoms: _68  and  _71
REMARK   29  A    between atoms: _71  and  _72
REMARK   30  A    between atoms: _75  and  _77
REMARK   31  A    between atoms: _77  and  _78
REMARK   32  A    between atoms: _77  and  _80
REMARK   33  A    between atoms: _80  and  _81
REMARK   34  A    between atoms: _81  and  _82
REMARK   35  A    between atoms: _84  and  _86
REMARK   36  A    between atoms: _86  and  _87
REMARK   37  A    between atoms: _89  and  _91
REMARK   38  A    between atoms: _91  and  _92
REMARK   39  A    between atoms: _91  and  _94
REMARK   40  A    between atoms: _94  and  _95
REMARK   41  A    between atoms: _101  and  _103
REMARK   42  A    between atoms: _103  and  _104
REMARK   43  A    between atoms: _103  and  _106
REMARK   44  A    between atoms: _106  and  _107
REMARK   45  A    between atoms: _107  and  _108
REMARK   46  A    between atoms: _111  and  _113
REMARK   47  A    between atoms: _113  and  _114
REMARK   48  A    between atoms: _113  and  _116
REMARK   49  A    between atoms: _116  and  _117
REMARK   50  A    between atoms: _119  and  _121
REMARK   51  A    between atoms: _121  and  _122
REMARK   52  A    between atoms: _121  and  _124
REMARK   53  A    between atoms: _124  and  _125
REMARK   54  A    between atoms: _127  and  _129
REMARK   55  A    between atoms: _129  and  _130
REMARK   56  A    between atoms: _132  and  _134
REMARK   57  A    between atoms: _134  and  _135
REMARK   58  A    between atoms: _134  and  _137
REMARK   59  A    between atoms: _137  and  _138
REMARK   60  A    between atoms: _143  and  _145
REMARK   61  A    between atoms: _145  and  _146
REMARK   62  A    between atoms: _145  and  _148
REMARK   63  A    between atoms: _148  and  _149
REMARK   64  A    between atoms: _154  and  _155
REMARK   65  A    between atoms: _157  and  _159
REMARK   66  A    between atoms: _159  and  _160
REMARK   67  A    between atoms: _159  and  _162
REMARK   68  A    between atoms: _162  and  _163
REMARK   69  A    between atoms: _163  and  _164
REMARK   70  A    between atoms: _167  and  _169
REMARK   71  A    between atoms: _169  and  _170
REMARK   72  A    between atoms: _169  and  _172
REMARK   73  A    between atoms: _172  and  _173
REMARK   74  A    between atoms: _173  and  _174
REMARK   75  A    between atoms: _174  and  _175
REMARK   76  A    between atoms: _184  and  _186
REMARK   77  A    between atoms: _186  and  _187
REMARK   78  A    between atoms: _186  and  _189
REMARK   79  A    between atoms: _189  and  _190
REMARK   80  A    between atoms: _193  and  _195
REMARK   81  A    between atoms: _195  and  _196
REMARK   82  A    between atoms: _195  and  _198
REMARK   83  A    between atoms: _198  and  _199
REMARK   84  A    between atoms: _199  and  _200
REMARK   85  A    between atoms: _200  and  _201
REMARK   86  A    between atoms: _210  and  _212
REMARK   87  A    between atoms: _212  and  _213
REMARK   88  A    between atoms: _212  and  _215
REMARK   89  A    between atoms: _215  and  _216
REMARK   90  A    between atoms: _219  and  _221
REMARK   91  A    between atoms: _221  and  _222
REMARK   92  A    between atoms: _221  and  _224
REMARK   93  A    between atoms: _224  and  _225
REMARK   94  A    between atoms: _225  and  _226
REMARK   95  A    between atoms: _228  and  _230
REMARK   96  A    between atoms: _230  and  _231
REMARK   97  A    between atoms: _230  and  _233
REMARK   98  A    between atoms: _233  and  _234
REMARK   99  A    between atoms: _237  and  _239
REMARK  100  A    between atoms: _239  and  _240
REMARK  101  A    between atoms: _239  and  _242
REMARK  102  A    between atoms: _242  and  _243
REMARK  103  A    between atoms: _246  and  _248
REMARK  104  A    between atoms: _248  and  _249
REMARK  105  A    between atoms: _248  and  _251
REMARK  106  A    between atoms: _251  and  _252
REMARK  107  A    between atoms: _252  and  _253
REMARK  108  A    between atoms: _258  and  _260
REMARK  109  A    between atoms: _260  and  _261
REMARK  110  A    between atoms: _260  and  _263
REMARK  111  A    between atoms: _263  and  _264
REMARK  112  A    between atoms: _267  and  _269
REMARK  113  A    between atoms: _269  and  _270
REMARK  114  A    between atoms: _269  and  _272
REMARK  115  A    between atoms: _272  and  _273
REMARK  116  A    between atoms: _275  and  _277
REMARK  117  A    between atoms: _277  and  _278
REMARK  118  A    between atoms: _281  and  _283
REMARK  119  A    between atoms: _283  and  _284
REMARK  120  A    between atoms: _287  and  _289
REMARK  121  A    between atoms: _289  and  _290
REMARK  122  A    between atoms: _289  and  _292
REMARK  123  A    between atoms: _292  and  _293
REMARK  124  A    between atoms: _293  and  _294
REMARK  125  A    between atoms: _294  and  _295
REMARK  126  A    between atoms: _304  and  _306
REMARK  127  A    between atoms: _306  and  _307
REMARK  128  A    between atoms: _310  and  _312
REMARK  129  A    between atoms: _312  and  _313
REMARK  130  A    between atoms: _312  and  _315
REMARK  131  A    between atoms: _315  and  _316
REMARK  132  A    between atoms: _321  and  _323
REMARK  133  A    between atoms: _323  and  _324
REMARK  134  A    between atoms: _323  and  _326
REMARK  135  A    between atoms: _326  and  _327
REMARK                            x       y       z     vdW  Elec       q    Type
REMARK                         _______ _______ _______ _____ _____    ______ ____
ROOT
ATOM      1  C   ALA A   2       7.176  44.074   3.092  0.00  0.00    +0.241 C 
ATOM      2  N   ILE A   3       7.996  43.595   4.019  0.00  0.00    -0.297 N 
ATOM      3  H   ILE A   3       8.740  44.212   4.403  0.00  0.00    +0.150 HD
ATOM      4  O   ALA A   2       6.321  43.389   2.493  0.00  0.00    -0.273 OA
ENDROOT
BRANCH   1   5
ATOM      5  CA  ALA A   2       7.313  45.546   2.795  0.00  0.00    +0.149 C 
ATOM      6  CB  ALA A   2       6.181  46.289   3.435  0.00  0.00    +0.031 C 
BRANCH   5   8
ATOM      7  C   VAL A   1       8.535  45.774   0.670  0.00  0.00    +0.238 C 
ATOM      8  N   ALA A   2       7.376  45.804   1.344  0.00  0.00    -0.297 N 
ATOM      9  H   ALA A   2       6.497  46.015   0.829  0.00  0.00    +0.150 HD
ATOM     10  O   VAL A   1       9.627  45.615   1.209  0.00  0.00    -0.274 OA
BRANCH   7  11
ATOM     11  CA  VAL A   1       8.493  46.009  -0.829  0.00  0.00    +0.145 C 
BRANCH  11  12
ATOM     12  CB  VAL A   1       9.013  44.815  -1.559  0.00  0.00    +0.025 C 
ATOM     13  CG2 VAL A   1       8.154  43.544  -1.306  0.00  0.00    +0.002 C 
ATOM     14  CG1 VAL A   1       9.029  45.123  -3.024  0.00  0.00    +0.002 C 
ENDBRANCH  11  12
BRANCH  11  15
ATOM     15  N   VAL A   1       9.342  47.150  -1.123  0.00  0.00    -0.238 NA
ATOM     16  H   VAL A   1      10.360  47.080  -0.922  0.00  0.00    +0.142 HD
ENDBRANCH  11  15
ENDBRANCH   7  11
ENDBRANCH   5   8
ENDBRANCH   1   5
BRANCH   2  17
ATOM     17  CA  ILE A   3       7.885  42.241   4.509  0.00  0.00    +0.149 C 
BRANCH  17  18
ATOM     18  C   ILE A   3       7.724  42.234   6.032  0.00  0.00    +0.241 C 
ATOM     19  O   ILE A   3       8.225  43.135   6.730  0.00  0.00    -0.273 OA
ATOM     20  N   ASP A   4       7.010  41.224   6.500  0.00  0.00    -0.298 N 
ATOM     21  H   ASP A   4       6.489  40.644   5.812  0.00  0.00    +0.150 HD
BRANCH  20  22
ATOM     22  CA  ASP A   4       6.900  40.867   7.890  0.00  0.00    +0.148 C 
BRANCH  22  23
ATOM     23  C   ASP A   4       8.111  39.965   8.157  0.00  0.00    +0.227 C 
ATOM     24  O   ASP A   4       8.283  38.894   7.554  0.00  0.00    -0.286 OA
ENDBRANCH  22  23
BRANCH  22  25
ATOM     25  CB  ASP A   4       5.555  40.164   8.136  0.00  0.00    +0.142 C 
BRANCH  25  26
ATOM     26  CG  ASP A   4       5.413  39.654   9.530  0.00  0.00    +0.367 C 
ATOM     27  OD2 ASP A   4       6.338  39.164  10.202  0.00  0.00    -0.246 OA
ATOM     28  OD1 ASP A   4       4.315  39.684  10.038  0.00  0.00    -0.246 OA
ENDBRANCH  25  26
ENDBRANCH  22  25
ENDBRANCH  20  22
ENDBRANCH  17  18
BRANCH  17  29
ATOM     29  CB  ILE A   3       9.108  41.381   4.128  0.00  0.00    +0.027 C 
ATOM     30  CG2 ILE A   3       9.283  41.231   2.609  0.00  0.00    +0.002 C 
BRANCH  29  31
ATOM     31  CG1 ILE A   3      10.375  41.989   4.670  0.00  0.00    +0.002 C 
ATOM     32  CD1 ILE A   3      11.549  41.104   4.510  0.00  0.00    +0.000 C 
ENDBRANCH  29  31
ENDBRANCH  17  29
ENDBRANCH   2  17
TORSDOF 13
REMARK  Name = ../refined-set-2016/1nli/1nli_pocket.pdb
REMARK  135 active torsions:
REMARK  status: ('A' for Active; 'I' for Inactive)
REMARK    1  A    between atoms: _1  and  _3
REMARK    2  A    between atoms: _3  and  _4
REMARK    3  A    between atoms: _3  and  _6
REMARK    4  A    between atoms: _9  and  _11
REMARK    5  A    between atoms: _11  and  _12
REMARK    6  A    between atoms: _15  and  _17
REMARK    7  A    between atoms: _17  and  _18
REMARK    8  A    between atoms: _17  and  _20
REMARK    9  A    between atoms: _20  and  _21
REMARK   10  A    between atoms: _24  and  _26
REMARK   11  A    between atoms: _26  and  _27
REMARK   12  A    between atoms: _26  and  _29
REMARK   13  A    between atoms: _29  and  _30
REMARK   14  A    between atoms: _33  and  _35
REMARK   15  A    between atoms: _35  and  _36
REMARK   16  A    between atoms: _35  and  _38
REMARK   17  A    between atoms: _38  and  _39
REMARK   18  A    between atoms: _44  and  _46
REMARK   19  A    between atoms: _46  and  _47
REMARK   20  A    between atoms: _46  and  _49
REMARK   21  A    between atoms: _52  and  _54
REMARK   22  A    between atoms: _54  and  _55
REMARK   23  A    between atoms: _54  and  _57
REMARK   24  A    between atoms: _57  and  _58
REMARK   25  A    between atoms: _63  and  _64
REMARK   26  A    between atoms: _66  and  _68
REMARK   27  A    between atoms: _68  and  _69
REMARK   28  A    between atoms: _68  and  _71
REMARK   29  A    between atoms: _71  and  _72
REMARK   30  A    between atoms: _75  and  _77
REMARK   31  A    between atoms: _77  and  _78
REMARK   32  A    between atoms: _77  and  _80
REMARK   33  A    between atoms: _80  and  _81
REMARK   34  A    between atoms: _81  and  _82
REMARK   35  A    between atoms: _84  and  _86
REMARK   36  A    between atoms: _86  and  _87
REMARK   37  A    between atoms: _89  and  _91
REMARK   38  A    between atoms: _91  and  _92
REMARK   39  A    between atoms: _91  and  _94
REMARK   40  A    between atoms: _94  and  _95
REMARK   41  A    between atoms: _101  and  _103
REMARK   42  A    between atoms: _103  and  _104
REMARK   43  A    between atoms: _103  and  _106
REMARK   44  A    between atoms: _106  and  _107
REMARK   45  A    between atoms: _107  and  _108
REMARK   46  A    between atoms: _111  and  _113
REMARK   47  A    between atoms: _113  and  _114
REMARK   48  A    between atoms: _113  and  _116
REMARK   49  A    between atoms: _116  and  _117
REMARK   50  A    between atoms: _119  and  _121
REMARK   51  A    between atoms: _121  and  _122
REMARK   52  A    between atoms: _121  and  _124
REMARK   53  A    between atoms: _124  and  _125
REMARK   54  A    between atoms: _127  and  _129
REMARK   55  A    between atoms: _129  and  _130
REMARK   56  A    between atoms: _132  and  _134
REMARK   57  A    between atoms: _134  and  _135
REMARK   58  A    between atoms: _134  and  _137
REMARK   59  A    between atoms: _137  and  _138
REMARK   60  A    between atoms: _143  and  _145
REMARK   61  A    between atoms: _145  and  _146
REMARK   62  A    between atoms: _145  and  _148
REMARK   63  A    between atoms: _148  and  _149
REMARK   64  A    between atoms: _154  and  _155
REMARK   65  A    between atoms: _157  and  _159
REMARK   66  A    between atoms: _159  and  _160
REMARK   67  A    between atoms: _159  and  _162
REMARK   68  A    between atoms: _162  and  _163
REMARK   69  A    between atoms: _163  and  _164
REMARK   70  A    between atoms: _167  and  _169
REMARK   71  A    between atoms: _169  and  _170
REMARK   72  A    between atoms: _169  and  _172
REMARK   73  A    between atoms: _172  and  _173
REMARK   74  A    between atoms: _173  and  _174
REMARK   75  A    between atoms: _174  and  _175
REMARK   76  A    between atoms: _184  and  _186
REMARK   77  A    between atoms: _186  and  _187
REMARK   78  A    between atoms: _186  and  _189
REMARK   79  A    between atoms: _189  and  _190
REMARK   80  A    between atoms: _193  and  _195
REMARK   81  A    between atoms: _195  and  _196
REMARK   82  A    between atoms: _195  and  _198
REMARK   83  A    between atoms: _198  and  _199
REMARK   84  A    between atoms: _199  and  _200
REMARK   85  A    between atoms: _200  and  _201
REMARK   86  A    between atoms: _210  and  _212
REMARK   87  A    between atoms: _212  and  _213
REMARK   88  A    between atoms: _212  and  _215
REMARK   89  A    between atoms: _215  and  _216
REMARK   90  A    between atoms: _219  and  _221
REMARK   91  A    between atoms: _221  and  _222
REMARK   92  A    between atoms: _221  and  _224
REMARK   93  A    between atoms: _224  and  _225
REMARK   94  A    between atoms: _225  and  _226
REMARK   95  A    between atoms: _228  and  _230
REMARK   96  A    between atoms: _230  and  _231
REMARK   97  A    between atoms: _230  and  _233
REMARK   98  A    between atoms: _233  and  _234
REMARK   99  A    between atoms: _237  and  _239
REMARK  100  A    between atoms: _239  and  _240
REMARK  101  A    between atoms: _239  and  _242
REMARK  102  A    between atoms: _242  and  _243
REMARK  103  A    between atoms: _246  and  _248
REMARK  104  A    between atoms: _248  and  _249
REMARK  105  A    between atoms: _248  and  _251
REMARK  106  A    between atoms: _251  and  _252
REMARK  107  A    between atoms: _252  and  _253
REMARK  108  A    between atoms: _258  and  _260
REMARK  109  A    between atoms: _260  and  _261
REMARK  110  A    between atoms: _260  and  _263
REMARK  111  A    between atoms: _263  and  _264
REMARK  112  A    between atoms: _267  and  _269
REMARK  113  A    between atoms: _269  and  _270
REMARK  114  A    between atoms: _269  and  _272
REMARK  115  A    between atoms: _272  and  _273
REMARK  116  A    between atoms: _275  and  _277
REMARK  117  A    between atoms: _277  and  _278
REMARK  118  A    between atoms: _281  and  _283
REMARK  119  A    between atoms: _283  and  _284
REMARK  120  A    between atoms: _287  and  _289
REMARK  121  A    between atoms: _289  and  _290
REMARK  122  A    between atoms: _289  and  _292
REMARK  123  A    between atoms: _292  and  _293
REMARK  124  A    between atoms: _293  and  _294
REMARK  125  A    between atoms: _294  and  _295
REMARK  126  A    between atoms: _304  and  _306
REMARK  127  A    between atoms: _306  and  _307
REMARK  128  A    between atoms: _310  and  _312
REMARK  129  A    between atoms: _312  and  _313
REMARK  130  A    between atoms: _312  and  _315
REMARK  131  A    between atoms: _315  and  _316
REMARK  132  A    between atoms: _321  and  _323
REMARK  133  A    between atoms: _323  and  _324
REMARK  134  A    between atoms: _323  and  _326
REMARK  135  A    between atoms: _326  and  _327
REMARK                            x       y       z     vdW  Elec       q    Type
REMARK                         _______ _______ _______ _____ _____    ______ ____
ROOT
ATOM      1  CA  TYR A   3       5.748  37.397   3.850  0.00  0.00    +0.153 C 
ENDROOT
BRANCH   1   3
ATOM      2  C   VAL A   2       8.115  37.103   4.283  0.00  0.00    +0.241 C 
ATOM      3  N   TYR A   3       6.878  37.215   4.742  0.00  0.00    -0.297 N 
ATOM      4  H   TYR A   3       6.712  37.171   5.768  0.00  0.00    +0.150 HD
ATOM      5  O   VAL A   2       8.390  37.175   3.063  0.00  0.00    -0.273 OA
BRANCH   2   6
ATOM      6  CA  VAL A   2       9.229  36.788   5.307  0.00  0.00    +0.148 C 
BRANCH   6   8
ATOM      7  C   ASN A   1       8.121  35.213   6.860  0.00  0.00    +0.239 C 
ATOM      8  N   VAL A   2       8.797  36.337   6.613  0.00  0.00    -0.297 N 
ATOM      9  H   VAL A   2       9.033  36.939   7.427  0.00  0.00    +0.150 HD
ATOM     10  O   ASN A   1       7.886  34.357   6.024  0.00  0.00    -0.274 OA
BRANCH   7  11
ATOM     11  CA  ASN A   1       7.707  34.986   8.299  0.00  0.00    +0.154 C 
BRANCH  11  12
ATOM     12  N   ASN A   1       7.977  36.062   9.249  0.00  0.00    -0.238 NA
ATOM     13  H   ASN A   1       7.829  37.055   8.978  0.00  0.00    +0.142 HD
ENDBRANCH  11  12
BRANCH  11  14
ATOM     14  CB  ASN A   1       6.250  34.580   8.408  0.00  0.00    +0.111 C 
BRANCH  14  15
ATOM     15  CG  ASN A   1       5.285  35.700   8.124  0.00  0.00    +0.221 C 
ATOM     16  OD1 ASN A   1       4.084  35.606   8.485  0.00  0.00    -0.275 OA
ATOM     17  ND2 ASN A   1       5.752  36.730   7.467  0.00  0.00    -0.329 N 
ATOM     18 HD21 ASN A   1       5.121  37.519   7.221  0.00  0.00    +0.145 HD
ATOM     19 HD22 ASN A   1       6.754  36.760   7.191  0.00  0.00    +0.145 HD
ENDBRANCH  14  15
ENDBRANCH  11  14
ENDBRANCH   7  11
ENDBRANCH   6   8
BRANCH   6  20
ATOM     20  CB  VAL A   2      10.334  35.889   4.642  0.00  0.00    +0.027 C 
ATOM     21  CG2 VAL A   2      11.145  35.015   5.604  0.00  0.00    +0.002 C 
ATOM     22  CG1 VAL A   2      11.382  36.794   3.965  0.00  0.00    +0.002 C 
ENDBRANCH   6  20
ENDBRANCH   2   6
ENDBRANCH   1   3
BRANCH   1  23
ATOM     23  C   TYR A   3       5.739  38.848   3.335  0.00  0.00    +0.241 C 
ATOM     24  O   TYR A   3       5.912  39.770   4.091  0.00  0.00    -0.273 OA
ATOM     25  N   ILE A   4       5.623  38.984   2.029  0.00  0.00    -0.297 N 
ATOM     26  H   ILE A   4       5.752  38.149   1.422  0.00  0.00    +0.150 HD
BRANCH  25  27
ATOM     27  CA  ILE A   4       5.321  40.261   1.412  0.00  0.00    +0.149 C 
BRANCH  27  28
ATOM     28  C   ILE A   4       3.916  40.737   1.801  0.00  0.00    +0.241 C 
ATOM     29  N   MET A   5       3.862  41.954   2.381  0.00  0.00    -0.297 N 
ATOM     30  H   MET A   5       4.753  42.463   2.550  0.00  0.00    +0.150 HD
ATOM     31  O   ILE A   4       2.918  40.003   1.647  0.00  0.00    -0.273 OA
BRANCH  29  32
ATOM     32  CA  MET A   5       2.608  42.589   2.782  0.00  0.00    +0.149 C 
BRANCH  32  33
ATOM     33  C   MET A   5       2.082  43.423   1.633  0.00  0.00    +0.241 C 
ATOM     34  O   MET A   5       0.851  43.598   1.472  0.00  0.00    -0.273 OA
ATOM     35  N   GLY A   6       3.001  43.983   0.849  0.00  0.00    -0.296 N 
ATOM     36  H   GLY A   6       3.999  43.720   0.979  0.00  0.00    +0.150 HD
BRANCH  35  37
ATOM     37  CA  GLY A   6       2.662  44.938  -0.171  0.00  0.00    +0.163 C 
BRANCH  37  38
ATOM     38  C   GLY A   6       3.855  45.733  -0.659  0.00  0.00    +0.229 C 
ATOM     39  O   GLY A   6       4.950  45.448  -0.282  0.00  0.00    -0.286 OA
ENDBRANCH  37  38
ENDBRANCH  35  37
ENDBRANCH  32  33
BRANCH  32  40
ATOM     40  CB  MET A   5       2.783  43.529   3.966  0.00  0.00    +0.041 C 
BRANCH  40  41
ATOM     41  CG  MET A   5       3.364  42.935   5.194  0.00  0.00    +0.060 C 
BRANCH  41  42
ATOM     42  SD  MET A   5       2.244  41.763   5.982  0.00  0.00    -0.139 S 
ATOM     43  CE  MET A   5       2.617  40.171   5.283  0.00  0.00    +0.069 C 
ENDBRANCH  41  42
ENDBRANCH  40  41
ENDBRANCH  32  40
ENDBRANCH  29  32
ENDBRANCH  27  28
BRANCH  27  44
ATOM     44  CB  ILE A   4       5.531  40.189  -0.068  0.00  0.00    +0.027 C 
ATOM     45  CG2 ILE A   4       5.093  41.466  -0.758  0.00  0.00    +0.002 C 
BRANCH  44  46
ATOM     46  CG1 ILE A   4       7.024  39.999  -0.329  0.00  0.00    +0.002 C 
ATOM     47  CD1 ILE A   4       7.486  39.891  -1.807  0.00  0.00    +0.000 C 
ENDBRANCH  44  46
ENDBRANCH  27  44
ENDBRANCH  25  27
ENDBRANCH   1  23
BRANCH   1  48
ATOM     48  CB  TYR A   3       4.403  37.022   4.497  0.00  0.00    +0.055 C 
BRANCH  48  49
ATOM     49  CG  TYR A   3       4.058  35.578   4.230  0.00  0.00    -0.020 A 
ATOM     50  CD2 TYR A   3       4.803  34.547   4.788  0.00  0.00    -0.001 A 
ATOM     51  CE2 TYR A   3       4.522  33.223   4.516  0.00  0.00    +0.036 A 
ATOM     52  CZ  TYR A   3       3.512  32.929   3.608  0.00  0.00    +0.134 A 
ATOM     53  CE1 TYR A   3       2.802  33.955   2.989  0.00  0.00    +0.036 A 
ATOM     54  CD1 TYR A   3       3.078  35.253   3.307  0.00  0.00    -0.001 A 
BRANCH  52  55
ATOM     55  OH  TYR A   3       3.162  31.637   3.287  0.00  0.00    -0.506 OA
ATOM     56  HH  TYR A   3       2.214  31.484   3.526  0.00  0.00    +0.292 HD
ENDBRANCH  52  55
ENDBRANCH  48  49
ENDBRANCH   1  48
TORSDOF 23
REMARK  Name = ../refined-set-2016/1nli/1nli_pocket.pdb
REMARK  135 active torsions:
REMARK  status: ('A' for Active; 'I' for Inactive)
REMARK    1  A    between atoms: _1  and  _3
REMARK    2  A    between atoms: _3  and  _4
REMARK    3  A    between atoms: _3  and  _6
REMARK    4  A    between atoms: _9  and  _11
REMARK    5  A    between atoms: _11  and  _12
REMARK    6  A    between atoms: _15  and  _17
REMARK    7  A    between atoms: _17  and  _18
REMARK    8  A    between atoms: _17  and  _20
REMARK    9  A    between atoms: _20  and  _21
REMARK   10  A    between atoms: _24  and  _26
REMARK   11  A    between atoms: _26  and  _27
REMARK   12  A    between atoms: _26  and  _29
REMARK   13  A    between atoms: _29  and  _30
REMARK   14  A    between atoms: _33  and  _35
REMARK   15  A    between atoms: _35  and  _36
REMARK   16  A    between atoms: _35  and  _38
REMARK   17  A    between atoms: _38  and  _39
REMARK   18  A    between atoms: _44  and  _46
REMARK   19  A    between atoms: _46  and  _47
REMARK   20  A    between atoms: _46  and  _49
REMARK   21  A    between atoms: _52  and  _54
REMARK   22  A    between atoms: _54  and  _55
REMARK   23  A    between atoms: _54  and  _57
REMARK   24  A    between atoms: _57  and  _58
REMARK   25  A    between atoms: _63  and  _64
REMARK   26  A    between atoms: _66  and  _68
REMARK   27  A    between atoms: _68  and  _69
REMARK   28  A    between atoms: _68  and  _71
REMARK   29  A    between atoms: _71  and  _72
REMARK   30  A    between atoms: _75  and  _77
REMARK   31  A    between atoms: _77  and  _78
REMARK   32  A    between atoms: _77  and  _80
REMARK   33  A    between atoms: _80  and  _81
REMARK   34  A    between atoms: _81  and  _82
REMARK   35  A    between atoms: _84  and  _86
REMARK   36  A    between atoms: _86  and  _87
REMARK   37  A    between atoms: _89  and  _91
REMARK   38  A    between atoms: _91  and  _92
REMARK   39  A    between atoms: _91  and  _94
REMARK   40  A    between atoms: _94  and  _95
REMARK   41  A    between atoms: _101  and  _103
REMARK   42  A    between atoms: _103  and  _104
REMARK   43  A    between atoms: _103  and  _106
REMARK   44  A    between atoms: _106  and  _107
REMARK   45  A    between atoms: _107  and  _108
REMARK   46  A    between atoms: _111  and  _113
REMARK   47  A    between atoms: _113  and  _114
REMARK   48  A    between atoms: _113  and  _116
REMARK   49  A    between atoms: _116  and  _117
REMARK   50  A    between atoms: _119  and  _121
REMARK   51  A    between atoms: _121  and  _122
REMARK   52  A    between atoms: _121  and  _124
REMARK   53  A    between atoms: _124  and  _125
REMARK   54  A    between atoms: _127  and  _129
REMARK   55  A    between atoms: _129  and  _130
REMARK   56  A    between atoms: _132  and  _134
REMARK   57  A    between atoms: _134  and  _135
REMARK   58  A    between atoms: _134  and  _137
REMARK   59  A    between atoms: _137  and  _138
REMARK   60  A    between atoms: _143  and  _145
REMARK   61  A    between atoms: _145  and  _146
REMARK   62  A    between atoms: _145  and  _148
REMARK   63  A    between atoms: _148  and  _149
REMARK   64  A    between atoms: _154  and  _155
REMARK   65  A    between atoms: _157  and  _159
REMARK   66  A    between atoms: _159  and  _160
REMARK   67  A    between atoms: _159  and  _162
REMARK   68  A    between atoms: _162  and  _163
REMARK   69  A    between atoms: _163  and  _164
REMARK   70  A    between atoms: _167  and  _169
REMARK   71  A    between atoms: _169  and  _170
REMARK   72  A    between atoms: _169  and  _172
REMARK   73  A    between atoms: _172  and  _173
REMARK   74  A    between atoms: _173  and  _174
REMARK   75  A    between atoms: _174  and  _175
REMARK   76  A    between atoms: _184  and  _186
REMARK   77  A    between atoms: _186  and  _187
REMARK   78  A    between atoms: _186  and  _189
REMARK   79  A    between atoms: _189  and  _190
REMARK   80  A    between atoms: _193  and  _195
REMARK   81  A    between atoms: _195  and  _196
REMARK   82  A    between atoms: _195  and  _198
REMARK   83  A    between atoms: _198  and  _199
REMARK   84  A    between atoms: _199  and  _200
REMARK   85  A    between atoms: _200  and  _201
REMARK   86  A    between atoms: _210  and  _212
REMARK   87  A    between atoms: _212  and  _213
REMARK   88  A    between atoms: _212  and  _215
REMARK   89  A    between atoms: _215  and  _216
REMARK   90  A    between atoms: _219  and  _221
REMARK   91  A    between atoms: _221  and  _222
REMARK   92  A    between atoms: _221  and  _224
REMARK   93  A    between atoms: _224  and  _225
REMARK   94  A    between atoms: _225  and  _226
REMARK   95  A    between atoms: _228  and  _230
REMARK   96  A    between atoms: _230  and  _231
REMARK   97  A    between atoms: _230  and  _233
REMARK   98  A    between atoms: _233  and  _234
REMARK   99  A    between atoms: _237  and  _239
REMARK  100  A    between atoms: _239  and  _240
REMARK  101  A    between atoms: _239  and  _242
REMARK  102  A    between atoms: _242  and  _243
REMARK  103  A    between atoms: _246  and  _248
REMARK  104  A    between atoms: _248  and  _249
REMARK  105  A    between atoms: _248  and  _251
REMARK  106  A    between atoms: _251  and  _252
REMARK  107  A    between atoms: _252  and  _253
REMARK  108  A    between atoms: _258  and  _260
REMARK  109  A    between atoms: _260  and  _261
REMARK  110  A    between atoms: _260  and  _263
REMARK  111  A    between atoms: _263  and  _264
REMARK  112  A    between atoms: _267  and  _269
REMARK  113  A    between atoms: _269  and  _270
REMARK  114  A    between atoms: _269  and  _272
REMARK  115  A    between atoms: _272  and  _273
REMARK  116  A    between atoms: _275  and  _277
REMARK  117  A    between atoms: _277  and  _278
REMARK  118  A    between atoms: _281  and  _283
REMARK  119  A    between atoms: _283  and  _284
REMARK  120  A    between atoms: _287  and  _289
REMARK  121  A    between atoms: _289  and  _290
REMARK  122  A    between atoms: _289  and  _292
REMARK  123  A    between atoms: _292  and  _293
REMARK  124  A    between atoms: _293  and  _294
REMARK  125  A    between atoms: _294  and  _295
REMARK  126  A    between atoms: _304  and  _306
REMARK  127  A    between atoms: _306  and  _307
REMARK  128  A    between atoms: _310  and  _312
REMARK  129  A    between atoms: _312  and  _313
REMARK  130  A    between atoms: _312  and  _315
REMARK  131  A    between atoms: _315  and  _316
REMARK  132  A    between atoms: _321  and  _323
REMARK  133  A    between atoms: _323  and  _324
REMARK  134  A    between atoms: _323  and  _326
REMARK  135  A    between atoms: _326  and  _327
REMARK                            x       y       z     vdW  Elec       q    Type
REMARK                         _______ _______ _______ _____ _____    ______ ____
ROOT
ATOM      1  CB  PHE A   1      -1.907  41.255   0.290  0.00  0.00    +0.051 C 
ENDROOT
BRANCH   1   2
ATOM      2  CG  PHE A   1      -0.909  40.774  -0.709  0.00  0.00    -0.020 A 
ATOM      3  CD2 PHE A   1       0.438  40.679  -0.372  0.00  0.00    -0.004 A 
ATOM      4  CE2 PHE A   1       1.378  40.127  -1.246  0.00  0.00    -0.000 A 
ATOM      5  CZ  PHE A   1       0.984  39.730  -2.526  0.00  0.00    -0.000 A 
ATOM      6  CE1 PHE A   1      -0.360  39.886  -2.910  0.00  0.00    -0.000 A 
ATOM      7  CD1 PHE A   1      -1.312  40.392  -1.993  0.00  0.00    -0.004 A 
ENDBRANCH   1   2
BRANCH   1   8
ATOM      8  CA  PHE A   1      -2.690  42.458  -0.171  0.00  0.00    +0.137 C 
BRANCH   8   9
ATOM      9  N   PHE A   1      -1.841  43.629  -0.087  0.00  0.00    -0.239 NA
ATOM     10  H   PHE A   1      -0.855  43.517   0.225  0.00  0.00    +0.142 HD
ENDBRANCH   8   9
BRANCH   8  11
ATOM     11  C   PHE A   1      -3.936  42.602   0.698  0.00  0.00    +0.224 C 
ATOM     12  O   PHE A   1      -3.934  43.291   1.739  0.00  0.00    -0.287 OA
ENDBRANCH   8  11
ENDBRANCH   1   8
TORSDOF 4
REMARK  Name = ../refined-set-2016/1nli/1nli_pocket.pdb
REMARK  135 active torsions:
REMARK  status: ('A' for Active; 'I' for Inactive)
REMARK    1  A    between atoms: _1  and  _3
REMARK    2  A    between atoms: _3  and  _4
REMARK    3  A    between atoms: _3  and  _6
REMARK    4  A    between atoms: _9  and  _11
REMARK    5  A    between atoms: _11  and  _12
REMARK    6  A    between atoms: _15  and  _17
REMARK    7  A    between atoms: _17  and  _18
REMARK    8  A    between atoms: _17  and  _20
REMARK    9  A    between atoms: _20  and  _21
REMARK   10  A    between atoms: _24  and  _26
REMARK   11  A    between atoms: _26  and  _27
REMARK   12  A    between atoms: _26  and  _29
REMARK   13  A    between atoms: _29  and  _30
REMARK   14  A    between atoms: _33  and  _35
REMARK   15  A    between atoms: _35  and  _36
REMARK   16  A    between atoms: _35  and  _38
REMARK   17  A    between atoms: _38  and  _39
REMARK   18  A    between atoms: _44  and  _46
REMARK   19  A    between atoms: _46  and  _47
REMARK   20  A    between atoms: _46  and  _49
REMARK   21  A    between atoms: _52  and  _54
REMARK   22  A    between atoms: _54  and  _55
REMARK   23  A    between atoms: _54  and  _57
REMARK   24  A    between atoms: _57  and  _58
REMARK   25  A    between atoms: _63  and  _64
REMARK   26  A    between atoms: _66  and  _68
REMARK   27  A    between atoms: _68  and  _69
REMARK   28  A    between atoms: _68  and  _71
REMARK   29  A    between atoms: _71  and  _72
REMARK   30  A    between atoms: _75  and  _77
REMARK   31  A    between atoms: _77  and  _78
REMARK   32  A    between atoms: _77  and  _80
REMARK   33  A    between atoms: _80  and  _81
REMARK   34  A    between atoms: _81  and  _82
REMARK   35  A    between atoms: _84  and  _86
REMARK   36  A    between atoms: _86  and  _87
REMARK   37  A    between atoms: _89  and  _91
REMARK   38  A    between atoms: _91  and  _92
REMARK   39  A    between atoms: _91  and  _94
REMARK   40  A    between atoms: _94  and  _95
REMARK   41  A    between atoms: _101  and  _103
REMARK   42  A    between atoms: _103  and  _104
REMARK   43  A    between atoms: _103  and  _106
REMARK   44  A    between atoms: _106  and  _107
REMARK   45  A    between atoms: _107  and  _108
REMARK   46  A    between atoms: _111  and  _113
REMARK   47  A    between atoms: _113  and  _114
REMARK   48  A    between atoms: _113  and  _116
REMARK   49  A    between atoms: _116  and  _117
REMARK   50  A    between atoms: _119  and  _121
REMARK   51  A    between atoms: _121  and  _122
REMARK   52  A    between atoms: _121  and  _124
REMARK   53  A    between atoms: _124  and  _125
REMARK   54  A    between atoms: _127  and  _129
REMARK   55  A    between atoms: _129  and  _130
REMARK   56  A    between atoms: _132  and  _134
REMARK   57  A    between atoms: _134  and  _135
REMARK   58  A    between atoms: _134  and  _137
REMARK   59  A    between atoms: _137  and  _138
REMARK   60  A    between atoms: _143  and  _145
REMARK   61  A    between atoms: _145  and  _146
REMARK   62  A    between atoms: _145  and  _148
REMARK   63  A    between atoms: _148  and  _149
REMARK   64  A    between atoms: _154  and  _155
REMARK   65  A    between atoms: _157  and  _159
REMARK   66  A    between atoms: _159  and  _160
REMARK   67  A    between atoms: _159  and  _162
REMARK   68  A    between atoms: _162  and  _163
REMARK   69  A    between atoms: _163  and  _164
REMARK   70  A    between atoms: _167  and  _169
REMARK   71  A    between atoms: _169  and  _170
REMARK   72  A    between atoms: _169  and  _172
REMARK   73  A    between atoms: _172  and  _173
REMARK   74  A    between atoms: _173  and  _174
REMARK   75  A    between atoms: _174  and  _175
REMARK   76  A    between atoms: _184  and  _186
REMARK   77  A    between atoms: _186  and  _187
REMARK   78  A    between atoms: _186  and  _189
REMARK   79  A    between atoms: _189  and  _190
REMARK   80  A    between atoms: _193  and  _195
REMARK   81  A    between atoms: _195  and  _196
REMARK   82  A    between atoms: _195  and  _198
REMARK   83  A    between atoms: _198  and  _199
REMARK   84  A    between atoms: _199  and  _200
REMARK   85  A    between atoms: _200  and  _201
REMARK   86  A    between atoms: _210  and  _212
REMARK   87  A    between atoms: _212  and  _213
REMARK   88  A    between atoms: _212  and  _215
REMARK   89  A    between atoms: _215  and  _216
REMARK   90  A    between atoms: _219  and  _221
REMARK   91  A    between atoms: _221  and  _222
REMARK   92  A    between atoms: _221  and  _224
REMARK   93  A    between atoms: _224  and  _225
REMARK   94  A    between atoms: _225  and  _226
REMARK   95  A    between atoms: _228  and  _230
REMARK   96  A    between atoms: _230  and  _231
REMARK   97  A    between atoms: _230  and  _233
REMARK   98  A    between atoms: _233  and  _234
REMARK   99  A    between atoms: _237  and  _239
REMARK  100  A    between atoms: _239  and  _240
REMARK  101  A    between atoms: _239  and  _242
REMARK  102  A    between atoms: _242  and  _243
REMARK  103  A    between atoms: _246  and  _248
REMARK  104  A    between atoms: _248  and  _249
REMARK  105  A    between atoms: _248  and  _251
REMARK  106  A    between atoms: _251  and  _252
REMARK  107  A    between atoms: _252  and  _253
REMARK  108  A    between atoms: _258  and  _260
REMARK  109  A    between atoms: _260  and  _261
REMARK  110  A    between atoms: _260  and  _263
REMARK  111  A    between atoms: _263  and  _264
REMARK  112  A    between atoms: _267  and  _269
REMARK  113  A    between atoms: _269  and  _270
REMARK  114  A    between atoms: _269  and  _272
REMARK  115  A    between atoms: _272  and  _273
REMARK  116  A    between atoms: _275  and  _277
REMARK  117  A    between atoms: _277  and  _278
REMARK  118  A    between atoms: _281  and  _283
REMARK  119  A    between atoms: _283  and  _284
REMARK  120  A    between atoms: _287  and  _289
REMARK  121  A    between atoms: _289  and  _290
REMARK  122  A    between atoms: _289  and  _292
REMARK  123  A    between atoms: _292  and  _293
REMARK  124  A    between atoms: _293  and  _294
REMARK  125  A    between atoms: _294  and  _295
REMARK  126  A    between atoms: _304  and  _306
REMARK  127  A    between atoms: _306  and  _307
REMARK  128  A    between atoms: _310  and  _312
REMARK  129  A    between atoms: _312  and  _313
REMARK  130  A    between atoms: _312  and  _315
REMARK  131  A    between atoms: _315  and  _316
REMARK  132  A    between atoms: _321  and  _323
REMARK  133  A    between atoms: _323  and  _324
REMARK  134  A    between atoms: _323  and  _326
REMARK  135  A    between atoms: _326  and  _327
REMARK                            x       y       z     vdW  Elec       q    Type
REMARK                         _______ _______ _______ _____ _____    ______ ____
ROOT
ATOM      1  CA  GLU A   1      -5.684  40.124   4.195  0.00  0.00    +0.134 C 
ENDROOT
BRANCH   1   2
ATOM      2  N   GLU A   1      -5.772  41.095   3.107  0.00  0.00    -0.239 NA
ATOM      3  H   GLU A   1      -5.417  42.058   3.277  0.00  0.00    +0.142 HD
ENDBRANCH   1   2
BRANCH   1   4
ATOM      4  C   GLU A   1      -5.305  40.837   5.490  0.00  0.00    +0.224 C 
ATOM      5  O   GLU A   1      -4.762  41.928   5.478  0.00  0.00    -0.287 OA
ENDBRANCH   1   4
BRANCH   1   6
ATOM      6  CB  GLU A   1      -4.626  39.052   3.899  0.00  0.00    +0.037 C 
BRANCH   6   7
ATOM      7  CG  GLU A   1      -3.257  39.626   3.831  0.00  0.00    +0.116 C 
BRANCH   7   8
ATOM      8  CD  GLU A   1      -2.274  38.740   3.076  0.00  0.00    +0.365 C 
ATOM      9  OE2 GLU A   1      -2.451  37.555   3.002  0.00  0.00    -0.246 OA
ATOM     10  OE1 GLU A   1      -1.290  39.256   2.593  0.00  0.00    -0.246 OA
ENDBRANCH   7   8
ENDBRANCH   6   7
ENDBRANCH   1   6
TORSDOF 5
REMARK  Name = ../refined-set-2016/1nli/1nli_pocket.pdb
REMARK  135 active torsions:
REMARK  status: ('A' for Active; 'I' for Inactive)
REMARK    1  A    between atoms: _1  and  _3
REMARK    2  A    between atoms: _3  and  _4
REMARK    3  A    between atoms: _3  and  _6
REMARK    4  A    between atoms: _9  and  _11
REMARK    5  A    between atoms: _11  and  _12
REMARK    6  A    between atoms: _15  and  _17
REMARK    7  A    between atoms: _17  and  _18
REMARK    8  A    between atoms: _17  and  _20
REMARK    9  A    between atoms: _20  and  _21
REMARK   10  A    between atoms: _24  and  _26
REMARK   11  A    between atoms: _26  and  _27
REMARK   12  A    between atoms: _26  and  _29
REMARK   13  A    between atoms: _29  and  _30
REMARK   14  A    between atoms: _33  and  _35
REMARK   15  A    between atoms: _35  and  _36
REMARK   16  A    between atoms: _35  and  _38
REMARK   17  A    between atoms: _38  and  _39
REMARK   18  A    between atoms: _44  and  _46
REMARK   19  A    between atoms: _46  and  _47
REMARK   20  A    between atoms: _46  and  _49
REMARK   21  A    between atoms: _52  and  _54
REMARK   22  A    between atoms: _54  and  _55
REMARK   23  A    between atoms: _54  and  _57
REMARK   24  A    between atoms: _57  and  _58
REMARK   25  A    between atoms: _63  and  _64
REMARK   26  A    between atoms: _66  and  _68
REMARK   27  A    between atoms: _68  and  _69
REMARK   28  A    between atoms: _68  and  _71
REMARK   29  A    between atoms: _71  and  _72
REMARK   30  A    between atoms: _75  and  _77
REMARK   31  A    between atoms: _77  and  _78
REMARK   32  A    between atoms: _77  and  _80
REMARK   33  A    between atoms: _80  and  _81
REMARK   34  A    between atoms: _81  and  _82
REMARK   35  A    between atoms: _84  and  _86
REMARK   36  A    between atoms: _86  and  _87
REMARK   37  A    between atoms: _89  and  _91
REMARK   38  A    between atoms: _91  and  _92
REMARK   39  A    between atoms: _91  and  _94
REMARK   40  A    between atoms: _94  and  _95
REMARK   41  A    between atoms: _101  and  _103
REMARK   42  A    between atoms: _103  and  _104
REMARK   43  A    between atoms: _103  and  _106
REMARK   44  A    between atoms: _106  and  _107
REMARK   45  A    between atoms: _107  and  _108
REMARK   46  A    between atoms: _111  and  _113
REMARK   47  A    between atoms: _113  and  _114
REMARK   48  A    between atoms: _113  and  _116
REMARK   49  A    between atoms: _116  and  _117
REMARK   50  A    between atoms: _119  and  _121
REMARK   51  A    between atoms: _121  and  _122
REMARK   52  A    between atoms: _121  and  _124
REMARK   53  A    between atoms: _124  and  _125
REMARK   54  A    between atoms: _127  and  _129
REMARK   55  A    between atoms: _129  and  _130
REMARK   56  A    between atoms: _132  and  _134
REMARK   57  A    between atoms: _134  and  _135
REMARK   58  A    between atoms: _134  and  _137
REMARK   59  A    between atoms: _137  and  _138
REMARK   60  A    between atoms: _143  and  _145
REMARK   61  A    between atoms: _145  and  _146
REMARK   62  A    between atoms: _145  and  _148
REMARK   63  A    between atoms: _148  and  _149
REMARK   64  A    between atoms: _154  and  _155
REMARK   65  A    between atoms: _157  and  _159
REMARK   66  A    between atoms: _159  and  _160
REMARK   67  A    between atoms: _159  and  _162
REMARK   68  A    between atoms: _162  and  _163
REMARK   69  A    between atoms: _163  and  _164
REMARK   70  A    between atoms: _167  and  _169
REMARK   71  A    between atoms: _169  and  _170
REMARK   72  A    between atoms: _169  and  _172
REMARK   73  A    between atoms: _172  and  _173
REMARK   74  A    between atoms: _173  and  _174
REMARK   75  A    between atoms: _174  and  _175
REMARK   76  A    between atoms: _184  and  _186
REMARK   77  A    between atoms: _186  and  _187
REMARK   78  A    between atoms: _186  and  _189
REMARK   79  A    between atoms: _189  and  _190
REMARK   80  A    between atoms: _193  and  _195
REMARK   81  A    between atoms: _195  and  _196
REMARK   82  A    between atoms: _195  and  _198
REMARK   83  A    between atoms: _198  and  _199
REMARK   84  A    between atoms: _199  and  _200
REMARK   85  A    between atoms: _200  and  _201
REMARK   86  A    between atoms: _210  and  _212
REMARK   87  A    between atoms: _212  and  _213
REMARK   88  A    between atoms: _212  and  _215
REMARK   89  A    between atoms: _215  and  _216
REMARK   90  A    between atoms: _219  and  _221
REMARK   91  A    between atoms: _221  and  _222
REMARK   92  A    between atoms: _221  and  _224
REMARK   93  A    between atoms: _224  and  _225
REMARK   94  A    between atoms: _225  and  _226
REMARK   95  A    between atoms: _228  and  _230
REMARK   96  A    between atoms: _230  and  _231
REMARK   97  A    between atoms: _230  and  _233
REMARK   98  A    between atoms: _233  and  _234
REMARK   99  A    between atoms: _237  and  _239
REMARK  100  A    between atoms: _239  and  _240
REMARK  101  A    between atoms: _239  and  _242
REMARK  102  A    between atoms: _242  and  _243
REMARK  103  A    between atoms: _246  and  _248
REMARK  104  A    between atoms: _248  and  _249
REMARK  105  A    between atoms: _248  and  _251
REMARK  106  A    between atoms: _251  and  _252
REMARK  107  A    between atoms: _252  and  _253
REMARK  108  A    between atoms: _258  and  _260
REMARK  109  A    between atoms: _260  and  _261
REMARK  110  A    between atoms: _260  and  _263
REMARK  111  A    between atoms: _263  and  _264
REMARK  112  A    between atoms: _267  and  _269
REMARK  113  A    between atoms: _269  and  _270
REMARK  114  A    between atoms: _269  and  _272
REMARK  115  A    between atoms: _272  and  _273
REMARK  116  A    between atoms: _275  and  _277
REMARK  117  A    between atoms: _277  and  _278
REMARK  118  A    between atoms: _281  and  _283
REMARK  119  A    between atoms: _283  and  _284
REMARK  120  A    between atoms: _287  and  _289
REMARK  121  A    between atoms: _289  and  _290
REMARK  122  A    between atoms: _289  and  _292
REMARK  123  A    between atoms: _292  and  _293
REMARK  124  A    between atoms: _293  and  _294
REMARK  125  A    between atoms: _294  and  _295
REMARK  126  A    between atoms: _304  and  _306
REMARK  127  A    between atoms: _306  and  _307
REMARK  128  A    between atoms: _310  and  _312
REMARK  129  A    between atoms: _312  and  _313
REMARK  130  A    between atoms: _312  and  _315
REMARK  131  A    between atoms: _315  and  _316
REMARK  132  A    between atoms: _321  and  _323
REMARK  133  A    between atoms: _323  and  _324
REMARK  134  A    between atoms: _323  and  _326
REMARK  135  A    between atoms: _326  and  _327
REMARK                            x       y       z     vdW  Elec       q    Type
REMARK                         _______ _______ _______ _____ _____    ______ ____
ROOT
ATOM      1  CA  SER A   1      -1.610  40.813   8.116  0.00  0.00    +0.163 C 
ENDROOT
BRANCH   1   2
ATOM      2  N   SER A   1      -3.007  40.474   7.910  0.00  0.00    -0.237 NA
ATOM      3  H   SER A   1      -3.237  39.544   7.506  0.00  0.00    +0.142 HD
ENDBRANCH   1   2
BRANCH   1   4
ATOM      4  C   SER A   1      -1.251  42.092   7.400  0.00  0.00    +0.227 C 
ATOM      5  O   SER A   1      -0.507  42.903   7.934  0.00  0.00    -0.287 OA
ENDBRANCH   1   4
BRANCH   1   6
ATOM      6  CB  SER A   1      -0.641  39.706   7.614  0.00  0.00    +0.162 C 
BRANCH   6   7
ATOM      7  OG  SER A   1      -1.071  39.252   6.349  0.00  0.00    -0.380 OA
ATOM      8  H   SER A   1      -0.456  38.547   6.026  0.00  0.00    +0.211 HD
ENDBRANCH   6   7
ENDBRANCH   1   6
TORSDOF 4
REMARK  Name = ../refined-set-2016/1nli/1nli_pocket.pdb
REMARK  135 active torsions:
REMARK  status: ('A' for Active; 'I' for Inactive)
REMARK    1  A    between atoms: _1  and  _3
REMARK    2  A    between atoms: _3  and  _4
REMARK    3  A    between atoms: _3  and  _6
REMARK    4  A    between atoms: _9  and  _11
REMARK    5  A    between atoms: _11  and  _12
REMARK    6  A    between atoms: _15  and  _17
REMARK    7  A    between atoms: _17  and  _18
REMARK    8  A    between atoms: _17  and  _20
REMARK    9  A    between atoms: _20  and  _21
REMARK   10  A    between atoms: _24  and  _26
REMARK   11  A    between atoms: _26  and  _27
REMARK   12  A    between atoms: _26  and  _29
REMARK   13  A    between atoms: _29  and  _30
REMARK   14  A    between atoms: _33  and  _35
REMARK   15  A    between atoms: _35  and  _36
REMARK   16  A    between atoms: _35  and  _38
REMARK   17  A    between atoms: _38  and  _39
REMARK   18  A    between atoms: _44  and  _46
REMARK   19  A    between atoms: _46  and  _47
REMARK   20  A    between atoms: _46  and  _49
REMARK   21  A    between atoms: _52  and  _54
REMARK   22  A    between atoms: _54  and  _55
REMARK   23  A    between atoms: _54  and  _57
REMARK   24  A    between atoms: _57  and  _58
REMARK   25  A    between atoms: _63  and  _64
REMARK   26  A    between atoms: _66  and  _68
REMARK   27  A    between atoms: _68  and  _69
REMARK   28  A    between atoms: _68  and  _71
REMARK   29  A    between atoms: _71  and  _72
REMARK   30  A    between atoms: _75  and  _77
REMARK   31  A    between atoms: _77  and  _78
REMARK   32  A    between atoms: _77  and  _80
REMARK   33  A    between atoms: _80  and  _81
REMARK   34  A    between atoms: _81  and  _82
REMARK   35  A    between atoms: _84  and  _86
REMARK   36  A    between atoms: _86  and  _87
REMARK   37  A    between atoms: _89  and  _91
REMARK   38  A    between atoms: _91  and  _92
REMARK   39  A    between atoms: _91  and  _94
REMARK   40  A    between atoms: _94  and  _95
REMARK   41  A    between atoms: _101  and  _103
REMARK   42  A    between atoms: _103  and  _104
REMARK   43  A    between atoms: _103  and  _106
REMARK   44  A    between atoms: _106  and  _107
REMARK   45  A    between atoms: _107  and  _108
REMARK   46  A    between atoms: _111  and  _113
REMARK   47  A    between atoms: _113  and  _114
REMARK   48  A    between atoms: _113  and  _116
REMARK   49  A    between atoms: _116  and  _117
REMARK   50  A    between atoms: _119  and  _121
REMARK   51  A    between atoms: _121  and  _122
REMARK   52  A    between atoms: _121  and  _124
REMARK   53  A    between atoms: _124  and  _125
REMARK   54  A    between atoms: _127  and  _129
REMARK   55  A    between atoms: _129  and  _130
REMARK   56  A    between atoms: _132  and  _134
REMARK   57  A    between atoms: _134  and  _135
REMARK   58  A    between atoms: _134  and  _137
REMARK   59  A    between atoms: _137  and  _138
REMARK   60  A    between atoms: _143  and  _145
REMARK   61  A    between atoms: _145  and  _146
REMARK   62  A    between atoms: _145  and  _148
REMARK   63  A    between atoms: _148  and  _149
REMARK   64  A    between atoms: _154  and  _155
REMARK   65  A    between atoms: _157  and  _159
REMARK   66  A    between atoms: _159  and  _160
REMARK   67  A    between atoms: _159  and  _162
REMARK   68  A    between atoms: _162  and  _163
REMARK   69  A    between atoms: _163  and  _164
REMARK   70  A    between atoms: _167  and  _169
REMARK   71  A    between atoms: _169  and  _170
REMARK   72  A    between atoms: _169  and  _172
REMARK   73  A    between atoms: _172  and  _173
REMARK   74  A    between atoms: _173  and  _174
REMARK   75  A    between atoms: _174  and  _175
REMARK   76  A    between atoms: _184  and  _186
REMARK   77  A    between atoms: _186  and  _187
REMARK   78  A    between atoms: _186  and  _189
REMARK   79  A    between atoms: _189  and  _190
REMARK   80  A    between atoms: _193  and  _195
REMARK   81  A    between atoms: _195  and  _196
REMARK   82  A    between atoms: _195  and  _198
REMARK   83  A    between atoms: _198  and  _199
REMARK   84  A    between atoms: _199  and  _200
REMARK   85  A    between atoms: _200  and  _201
REMARK   86  A    between atoms: _210  and  _212
REMARK   87  A    between atoms: _212  and  _213
REMARK   88  A    between atoms: _212  and  _215
REMARK   89  A    between atoms: _215  and  _216
REMARK   90  A    between atoms: _219  and  _221
REMARK   91  A    between atoms: _221  and  _222
REMARK   92  A    between atoms: _221  and  _224
REMARK   93  A    between atoms: _224  and  _225
REMARK   94  A    between atoms: _225  and  _226
REMARK   95  A    between atoms: _228  and  _230
REMARK   96  A    between atoms: _230  and  _231
REMARK   97  A    between atoms: _230  and  _233
REMARK   98  A    between atoms: _233  and  _234
REMARK   99  A    between atoms: _237  and  _239
REMARK  100  A    between atoms: _239  and  _240
REMARK  101  A    between atoms: _239  and  _242
REMARK  102  A    between atoms: _242  and  _243
REMARK  103  A    between atoms: _246  and  _248
REMARK  104  A    between atoms: _248  and  _249
REMARK  105  A    between atoms: _248  and  _251
REMARK  106  A    between atoms: _251  and  _252
REMARK  107  A    between atoms: _252  and  _253
REMARK  108  A    between atoms: _258  and  _260
REMARK  109  A    between atoms: _260  and  _261
REMARK  110  A    between atoms: _260  and  _263
REMARK  111  A    between atoms: _263  and  _264
REMARK  112  A    between atoms: _267  and  _269
REMARK  113  A    between atoms: _269  and  _270
REMARK  114  A    between atoms: _269  and  _272
REMARK  115  A    between atoms: _272  and  _273
REMARK  116  A    between atoms: _275  and  _277
REMARK  117  A    between atoms: _277  and  _278
REMARK  118  A    between atoms: _281  and  _283
REMARK  119  A    between atoms: _283  and  _284
REMARK  120  A    between atoms: _287  and  _289
REMARK  121  A    between atoms: _289  and  _290
REMARK  122  A    between atoms: _289  and  _292
REMARK  123  A    between atoms: _292  and  _293
REMARK  124  A    between atoms: _293  and  _294
REMARK  125  A    between atoms: _294  and  _295
REMARK  126  A    between atoms: _304  and  _306
REMARK  127  A    between atoms: _306  and  _307
REMARK  128  A    between atoms: _310  and  _312
REMARK  129  A    between atoms: _312  and  _313
REMARK  130  A    between atoms: _312  and  _315
REMARK  131  A    between atoms: _315  and  _316
REMARK  132  A    between atoms: _321  and  _323
REMARK  133  A    between atoms: _323  and  _324
REMARK  134  A    between atoms: _323  and  _326
REMARK  135  A    between atoms: _326  and  _327
REMARK                            x       y       z     vdW  Elec       q    Type
REMARK                         _______ _______ _______ _____ _____    ______ ____
ROOT
ATOM      1  C   TYR A   4      -1.388  30.850  -4.736  0.00  0.00    +0.241 C 
ATOM      2  N   GLU A   5      -2.350  30.226  -4.067  0.00  0.00    -0.297 N 
ATOM      3  H   GLU A   5      -2.287  30.091  -3.038  0.00  0.00    +0.150 HD
ATOM      4  O   TYR A   4      -1.455  30.998  -5.951  0.00  0.00    -0.273 OA
ENDROOT
BRANCH   2   5
ATOM      5  CA  GLU A   5      -3.510  29.731  -4.828  0.00  0.00    +0.149 C 
BRANCH   5   6
ATOM      6  C   GLU A   5      -4.352  30.897  -5.366  0.00  0.00    +0.241 C 
ATOM      7  N   ARG A   6      -4.504  31.914  -4.546  0.00  0.00    -0.297 N 
ATOM      8  H   ARG A   6      -4.143  31.831  -3.574  0.00  0.00    +0.150 HD
ATOM      9  O   GLU A   5      -4.843  30.887  -6.465  0.00  0.00    -0.273 OA
BRANCH   7  10
ATOM     10  CA  ARG A   6      -5.159  33.153  -4.947  0.00  0.00    +0.149 C 
BRANCH  10  11
ATOM     11  C   ARG A   6      -4.428  33.888  -6.090  0.00  0.00    +0.241 C 
ATOM     12  N   LEU A   7      -3.106  34.048  -5.949  0.00  0.00    -0.298 N 
ATOM     13  H   LEU A   7      -2.662  33.725  -5.066  0.00  0.00    +0.150 HD
ATOM     14  O   ARG A   6      -5.062  34.350  -7.063  0.00  0.00    -0.273 OA
BRANCH  12  15
ATOM     15  CA  LEU A   7      -2.253  34.653  -6.972  0.00  0.00    +0.137 C 
BRANCH  15  16
ATOM     16  C   LEU A   7      -2.268  33.959  -8.335  0.00  0.00    +0.227 C 
ATOM     17  O   LEU A   7      -2.356  34.600  -9.397  0.00  0.00    -0.286 OA
ENDBRANCH  15  16
BRANCH  15  18
ATOM     18  CB  LEU A   7      -0.814  34.819  -6.413  0.00  0.00    +0.028 C 
BRANCH  18  19
ATOM     19  CG  LEU A   7      -0.710  35.871  -5.313  0.00  0.00    +0.002 C 
ATOM     20  CD2 LEU A   7       0.655  35.834  -4.727  0.00  0.00    +0.000 C 
ATOM     21  CD1 LEU A   7      -1.008  37.268  -5.852  0.00  0.00    +0.000 C 
ENDBRANCH  18  19
ENDBRANCH  15  18
ENDBRANCH  12  15
ENDBRANCH  10  11
BRANCH  10  22
ATOM     22  CB  ARG A   6      -5.245  34.070  -3.719  0.00  0.00    +0.033 C 
BRANCH  22  23
ATOM     23  CG  ARG A   6      -6.584  34.290  -3.078  0.00  0.00    +0.045 C 
BRANCH  23  24
ATOM     24  CD  ARG A   6      -7.418  33.142  -2.543  0.00  0.00    +0.174 C 
BRANCH  24  25
ATOM     25  NE  ARG A   6      -7.685  31.998  -3.450  0.00  0.00    -0.265 N 
ATOM     26  CZ  ARG A   6      -7.500  30.735  -3.098  0.00  0.00    +0.342 C 
ATOM     27  NH2 ARG A   6      -7.042  30.456  -1.884  0.00  0.00    -0.292 N 
ATOM     28 HH21 ARG A   6      -6.831  31.226  -1.218  0.00  0.00    +0.255 HD
ATOM     29 HH22 ARG A   6      -6.894  29.467  -1.599  0.00  0.00    +0.255 HD
ATOM     30  NH1 ARG A   6      -7.767  29.750  -3.946  0.00  0.00    -0.292 N 
ATOM     31 HH11 ARG A   6      -7.618  28.762  -3.659  0.00  0.00    +0.255 HD
ATOM     32 HH12 ARG A   6      -8.125  29.966  -4.898  0.00  0.00    +0.255 HD
ATOM     33  HE  ARG A   6      -8.034  32.198  -4.409  0.00  0.00    +0.259 HD
ENDBRANCH  24  25
ENDBRANCH  23  24
ENDBRANCH  22  23
ENDBRANCH  10  22
ENDBRANCH   7  10
ENDBRANCH   5   6
BRANCH   5  34
ATOM     34  CB  GLU A   5      -4.370  28.701  -4.024  0.00  0.00    +0.041 C 
BRANCH  34  35
ATOM     35  CG  GLU A   5      -3.578  27.513  -3.463  0.00  0.00    +0.116 C 
BRANCH  35  36
ATOM     36  CD  GLU A   5      -3.099  26.540  -4.570  0.00  0.00    +0.365 C 
ATOM     37  OE2 GLU A   5      -1.945  26.121  -4.487  0.00  0.00    -0.246 OA
ATOM     38  OE1 GLU A   5      -3.867  26.206  -5.519  0.00  0.00    -0.246 OA
ENDBRANCH  35  36
ENDBRANCH  34  35
ENDBRANCH   5  34
ENDBRANCH   2   5
BRANCH   1  39
ATOM     39  CA  TYR A   4      -0.141  31.334  -3.968  0.00  0.00    +0.153 C 
BRANCH  39  41
ATOM     40  C   ASN A   3      -1.317  32.798  -2.418  0.00  0.00    +0.241 C 
ATOM     41  N   TYR A   4      -0.465  31.798  -2.613  0.00  0.00    -0.297 N 
ATOM     42  H   TYR A   4      -0.021  31.337  -1.794  0.00  0.00    +0.150 HD
ATOM     43  O   ASN A   3      -1.870  33.368  -3.376  0.00  0.00    -0.273 OA
BRANCH  40  44
ATOM     44  CA  ASN A   3      -1.527  33.287  -0.954  0.00  0.00    +0.158 C 
BRANCH  44  46
ATOM     45  C   GLY A   2      -0.537  35.554  -1.011  0.00  0.00    +0.243 C 
ATOM     46  N   ASN A   3      -1.598  34.758  -0.964  0.00  0.00    -0.297 N 
ATOM     47  H   ASN A   3      -2.538  35.201  -0.932  0.00  0.00    +0.150 HD
ATOM     48  O   GLY A   2       0.593  35.139  -1.070  0.00  0.00    -0.273 OA
BRANCH  45  49
ATOM     49  CA  GLY A   2      -0.770  37.041  -1.049  0.00  0.00    +0.176 C 
BRANCH  49  51
ATOM     50  C   SER A   1      -3.109  37.539  -1.176  0.00  0.00    +0.241 C 
ATOM     51  N   GLY A   2      -2.013  37.445  -0.436  0.00  0.00    -0.295 N 
ATOM     52  H   GLY A   2      -2.049  37.661   0.581  0.00  0.00    +0.150 HD
ATOM     53  O   SER A   1      -3.072  37.362  -2.396  0.00  0.00    -0.274 OA
BRANCH  50  54
ATOM     54  CA  SER A   1      -4.401  37.906  -0.463  0.00  0.00    +0.174 C 
BRANCH  54  55
ATOM     55  N   SER A   1      -5.486  38.108  -1.441  0.00  0.00    -0.236 NA
ATOM     56  H   SER A   1      -6.231  37.386  -1.522  0.00  0.00    +0.142 HD
ENDBRANCH  54  55
BRANCH  54  57
ATOM     57  CB  SER A   1      -4.787  36.814   0.518  0.00  0.00    +0.163 C 
BRANCH  57  58
ATOM     58  OG  SER A   1      -4.756  35.558  -0.157  0.00  0.00    -0.380 OA
ATOM     59  H   SER A   1      -5.007  34.839   0.475  0.00  0.00    +0.211 HD
ENDBRANCH  57  58
ENDBRANCH  54  57
ENDBRANCH  50  54
ENDBRANCH  49  51
ENDBRANCH  45  49
ENDBRANCH  44  46
BRANCH  44  60
ATOM     60  CB  ASN A   3      -2.829  32.779  -0.273  0.00  0.00    +0.114 C 
BRANCH  60  61
ATOM     61  CG  ASN A   3      -3.101  31.291  -0.462  0.00  0.00    +0.222 C 
ATOM     62  ND2 ASN A   3      -3.017  30.514   0.639  0.00  0.00    -0.329 N 
ATOM     63 HD21 ASN A   3      -2.712  30.926   1.544  0.00  0.00    +0.145 HD
ATOM     64 HD22 ASN A   3      -3.258  29.504   0.582  0.00  0.00    +0.145 HD
ATOM     65  OD1 ASN A   3      -3.456  30.860  -1.559  0.00  0.00    -0.275 OA
ENDBRANCH  60  61
ENDBRANCH  44  60
ENDBRANCH  40  44
ENDBRANCH  39  41
BRANCH  39  66
ATOM     66  CB  TYR A   4       0.868  30.169  -3.941  0.00  0.00    +0.055 C 
BRANCH  66  67
ATOM     67  CG  TYR A   4       2.312  30.574  -3.902  0.00  0.00    -0.020 A 
ATOM     68  CD2 TYR A   4       3.212  29.880  -3.105  0.00  0.00    -0.001 A 
ATOM     69  CE2 TYR A   4       4.555  30.219  -3.056  0.00  0.00    +0.036 A 
ATOM     70  CZ  TYR A   4       5.030  31.280  -3.808  0.00  0.00    +0.134 A 
ATOM     71  CE1 TYR A   4       4.161  32.024  -4.621  0.00  0.00    +0.036 A 
ATOM     72  CD1 TYR A   4       2.799  31.652  -4.686  0.00  0.00    -0.001 A 
BRANCH  70  73
ATOM     73  OH  TYR A   4       6.371  31.590  -3.731  0.00  0.00    -0.506 OA
ATOM     74  HH  TYR A   4       6.603  31.817  -2.796  0.00  0.00    +0.292 HD
ENDBRANCH  70  73
ENDBRANCH  66  67
ENDBRANCH  39  66
ENDBRANCH   1  39
TORSDOF 30
REMARK  Name = ../refined-set-2016/1nli/1nli_pocket.pdb
REMARK  135 active torsions:
REMARK  status: ('A' for Active; 'I' for Inactive)
REMARK    1  A    between atoms: _1  and  _3
REMARK    2  A    between atoms: _3  and  _4
REMARK    3  A    between atoms: _3  and  _6
REMARK    4  A    between atoms: _9  and  _11
REMARK    5  A    between atoms: _11  and  _12
REMARK    6  A    between atoms: _15  and  _17
REMARK    7  A    between atoms: _17  and  _18
REMARK    8  A    between atoms: _17  and  _20
REMARK    9  A    between atoms: _20  and  _21
REMARK   10  A    between atoms: _24  and  _26
REMARK   11  A    between atoms: _26  and  _27
REMARK   12  A    between atoms: _26  and  _29
REMARK   13  A    between atoms: _29  and  _30
REMARK   14  A    between atoms: _33  and  _35
REMARK   15  A    between atoms: _35  and  _36
REMARK   16  A    between atoms: _35  and  _38
REMARK   17  A    between atoms: _38  and  _39
REMARK   18  A    between atoms: _44  and  _46
REMARK   19  A    between atoms: _46  and  _47
REMARK   20  A    between atoms: _46  and  _49
REMARK   21  A    between atoms: _52  and  _54
REMARK   22  A    between atoms: _54  and  _55
REMARK   23  A    between atoms: _54  and  _57
REMARK   24  A    between atoms: _57  and  _58
REMARK   25  A    between atoms: _63  and  _64
REMARK   26  A    between atoms: _66  and  _68
REMARK   27  A    between atoms: _68  and  _69
REMARK   28  A    between atoms: _68  and  _71
REMARK   29  A    between atoms: _71  and  _72
REMARK   30  A    between atoms: _75  and  _77
REMARK   31  A    between atoms: _77  and  _78
REMARK   32  A    between atoms: _77  and  _80
REMARK   33  A    between atoms: _80  and  _81
REMARK   34  A    between atoms: _81  and  _82
REMARK   35  A    between atoms: _84  and  _86
REMARK   36  A    between atoms: _86  and  _87
REMARK   37  A    between atoms: _89  and  _91
REMARK   38  A    between atoms: _91  and  _92
REMARK   39  A    between atoms: _91  and  _94
REMARK   40  A    between atoms: _94  and  _95
REMARK   41  A    between atoms: _101  and  _103
REMARK   42  A    between atoms: _103  and  _104
REMARK   43  A    between atoms: _103  and  _106
REMARK   44  A    between atoms: _106  and  _107
REMARK   45  A    between atoms: _107  and  _108
REMARK   46  A    between atoms: _111  and  _113
REMARK   47  A    between atoms: _113  and  _114
REMARK   48  A    between atoms: _113  and  _116
REMARK   49  A    between atoms: _116  and  _117
REMARK   50  A    between atoms: _119  and  _121
REMARK   51  A    between atoms: _121  and  _122
REMARK   52  A    between atoms: _121  and  _124
REMARK   53  A    between atoms: _124  and  _125
REMARK   54  A    between atoms: _127  and  _129
REMARK   55  A    between atoms: _129  and  _130
REMARK   56  A    between atoms: _132  and  _134
REMARK   57  A    between atoms: _134  and  _135
REMARK   58  A    between atoms: _134  and  _137
REMARK   59  A    between atoms: _137  and  _138
REMARK   60  A    between atoms: _143  and  _145
REMARK   61  A    between atoms: _145  and  _146
REMARK   62  A    between atoms: _145  and  _148
REMARK   63  A    between atoms: _148  and  _149
REMARK   64  A    between atoms: _154  and  _155
REMARK   65  A    between atoms: _157  and  _159
REMARK   66  A    between atoms: _159  and  _160
REMARK   67  A    between atoms: _159  and  _162
REMARK   68  A    between atoms: _162  and  _163
REMARK   69  A    between atoms: _163  and  _164
REMARK   70  A    between atoms: _167  and  _169
REMARK   71  A    between atoms: _169  and  _170
REMARK   72  A    between atoms: _169  and  _172
REMARK   73  A    between atoms: _172  and  _173
REMARK   74  A    between atoms: _173  and  _174
REMARK   75  A    between atoms: _174  and  _175
REMARK   76  A    between atoms: _184  and  _186
REMARK   77  A    between atoms: _186  and  _187
REMARK   78  A    between atoms: _186  and  _189
REMARK   79  A    between atoms: _189  and  _190
REMARK   80  A    between atoms: _193  and  _195
REMARK   81  A    between atoms: _195  and  _196
REMARK   82  A    between atoms: _195  and  _198
REMARK   83  A    between atoms: _198  and  _199
REMARK   84  A    between atoms: _199  and  _200
REMARK   85  A    between atoms: _200  and  _201
REMARK   86  A    between atoms: _210  and  _212
REMARK   87  A    between atoms: _212  and  _213
REMARK   88  A    between atoms: _212  and  _215
REMARK   89  A    between atoms: _215  and  _216
REMARK   90  A    between atoms: _219  and  _221
REMARK   91  A    between atoms: _221  and  _222
REMARK   92  A    between atoms: _221  and  _224
REMARK   93  A    between atoms: _224  and  _225
REMARK   94  A    between atoms: _225  and  _226
REMARK   95  A    between atoms: _228  and  _230
REMARK   96  A    between atoms: _230  and  _231
REMARK   97  A    between atoms: _230  and  _233
REMARK   98  A    between atoms: _233  and  _234
REMARK   99  A    between atoms: _237  and  _239
REMARK  100  A    between atoms: _239  and  _240
REMARK  101  A    between atoms: _239  and  _242
REMARK  102  A    between atoms: _242  and  _243
REMARK  103  A    between atoms: _246  and  _248
REMARK  104  A    between atoms: _248  and  _249
REMARK  105  A    between atoms: _248  and  _251
REMARK  106  A    between atoms: _251  and  _252
REMARK  107  A    between atoms: _252  and  _253
REMARK  108  A    between atoms: _258  and  _260
REMARK  109  A    between atoms: _260  and  _261
REMARK  110  A    between atoms: _260  and  _263
REMARK  111  A    between atoms: _263  and  _264
REMARK  112  A    between atoms: _267  and  _269
REMARK  113  A    between atoms: _269  and  _270
REMARK  114  A    between atoms: _269  and  _272
REMARK  115  A    between atoms: _272  and  _273
REMARK  116  A    between atoms: _275  and  _277
REMARK  117  A    between atoms: _277  and  _278
REMARK  118  A    between atoms: _281  and  _283
REMARK  119  A    between atoms: _283  and  _284
REMARK  120  A    between atoms: _287  and  _289
REMARK  121  A    between atoms: _289  and  _290
REMARK  122  A    between atoms: _289  and  _292
REMARK  123  A    between atoms: _292  and  _293
REMARK  124  A    between atoms: _293  and  _294
REMARK  125  A    between atoms: _294  and  _295
REMARK  126  A    between atoms: _304  and  _306
REMARK  127  A    between atoms: _306  and  _307
REMARK  128  A    between atoms: _310  and  _312
REMARK  129  A    between atoms: _312  and  _313
REMARK  130  A    between atoms: _312  and  _315
REMARK  131  A    between atoms: _315  and  _316
REMARK  132  A    between atoms: _321  and  _323
REMARK  133  A    between atoms: _323  and  _324
REMARK  134  A    between atoms: _323  and  _326
REMARK  135  A    between atoms: _326  and  _327
REMARK                            x       y       z     vdW  Elec       q    Type
REMARK                         _______ _______ _______ _____ _____    ______ ____
ROOT
ATOM      1  NE  ARG A   1       3.472  27.972  -6.806  0.00  0.00    -0.265 N 
ATOM      2  CZ  ARG A   1       3.734  27.075  -5.848  0.00  0.00    +0.342 C 
ATOM      3  NH2 ARG A   1       4.902  27.050  -5.225  0.00  0.00    -0.292 N 
ATOM      4 HH21 ARG A   1       5.081  26.343  -4.484  0.00  0.00    +0.255 HD
ATOM      5 HH22 ARG A   1       5.640  27.738  -5.477  0.00  0.00    +0.255 HD
ATOM      6  NH1 ARG A   1       2.815  26.160  -5.548  0.00  0.00    -0.292 N 
ATOM      7 HH11 ARG A   1       3.005  25.457  -4.806  0.00  0.00    +0.255 HD
ATOM      8 HH12 ARG A   1       1.907  26.149  -6.056  0.00  0.00    +0.255 HD
ATOM      9  HE  ARG A   1       2.565  27.891  -7.309  0.00  0.00    +0.259 HD
ENDROOT
BRANCH   1  10
ATOM     10  CD  ARG A   1       4.356  29.041  -7.189  0.00  0.00    +0.174 C 
BRANCH  10  11
ATOM     11  CG  ARG A   1       4.048  29.562  -8.571  0.00  0.00    +0.045 C 
BRANCH  11  12
ATOM     12  CB  ARG A   1       4.546  28.638  -9.624  0.00  0.00    +0.029 C 
BRANCH  12  13
ATOM     13  CA  ARG A   1       4.148  29.057 -11.015  0.00  0.00    +0.133 C 
BRANCH  13  14
ATOM     14  N   ARG A   1       2.757  28.666 -11.218  0.00  0.00    -0.239 NA
ATOM     15  H   ARG A   1       2.214  28.289 -10.415  0.00  0.00    +0.142 HD
ENDBRANCH  13  14
BRANCH  13  16
ATOM     16  C   ARG A   1       5.133  28.477 -12.028  0.00  0.00    +0.224 C 
ATOM     17  O   ARG A   1       6.077  29.188 -12.490  0.00  0.00    -0.287 OA
ENDBRANCH  13  16
ENDBRANCH  12  13
ENDBRANCH  11  12
ENDBRANCH  10  11
ENDBRANCH   1  10
TORSDOF 6
REMARK  Name = ../refined-set-2016/1nli/1nli_pocket.pdb
REMARK  135 active torsions:
REMARK  status: ('A' for Active; 'I' for Inactive)
REMARK    1  A    between atoms: _1  and  _3
REMARK    2  A    between atoms: _3  and  _4
REMARK    3  A    between atoms: _3  and  _6
REMARK    4  A    between atoms: _9  and  _11
REMARK    5  A    between atoms: _11  and  _12
REMARK    6  A    between atoms: _15  and  _17
REMARK    7  A    between atoms: _17  and  _18
REMARK    8  A    between atoms: _17  and  _20
REMARK    9  A    between atoms: _20  and  _21
REMARK   10  A    between atoms: _24  and  _26
REMARK   11  A    between atoms: _26  and  _27
REMARK   12  A    between atoms: _26  and  _29
REMARK   13  A    between atoms: _29  and  _30
REMARK   14  A    between atoms: _33  and  _35
REMARK   15  A    between atoms: _35  and  _36
REMARK   16  A    between atoms: _35  and  _38
REMARK   17  A    between atoms: _38  and  _39
REMARK   18  A    between atoms: _44  and  _46
REMARK   19  A    between atoms: _46  and  _47
REMARK   20  A    between atoms: _46  and  _49
REMARK   21  A    between atoms: _52  and  _54
REMARK   22  A    between atoms: _54  and  _55
REMARK   23  A    between atoms: _54  and  _57
REMARK   24  A    between atoms: _57  and  _58
REMARK   25  A    between atoms: _63  and  _64
REMARK   26  A    between atoms: _66  and  _68
REMARK   27  A    between atoms: _68  and  _69
REMARK   28  A    between atoms: _68  and  _71
REMARK   29  A    between atoms: _71  and  _72
REMARK   30  A    between atoms: _75  and  _77
REMARK   31  A    between atoms: _77  and  _78
REMARK   32  A    between atoms: _77  and  _80
REMARK   33  A    between atoms: _80  and  _81
REMARK   34  A    between atoms: _81  and  _82
REMARK   35  A    between atoms: _84  and  _86
REMARK   36  A    between atoms: _86  and  _87
REMARK   37  A    between atoms: _89  and  _91
REMARK   38  A    between atoms: _91  and  _92
REMARK   39  A    between atoms: _91  and  _94
REMARK   40  A    between atoms: _94  and  _95
REMARK   41  A    between atoms: _101  and  _103
REMARK   42  A    between atoms: _103  and  _104
REMARK   43  A    between atoms: _103  and  _106
REMARK   44  A    between atoms: _106  and  _107
REMARK   45  A    between atoms: _107  and  _108
REMARK   46  A    between atoms: _111  and  _113
REMARK   47  A    between atoms: _113  and  _114
REMARK   48  A    between atoms: _113  and  _116
REMARK   49  A    between atoms: _116  and  _117
REMARK   50  A    between atoms: _119  and  _121
REMARK   51  A    between atoms: _121  and  _122
REMARK   52  A    between atoms: _121  and  _124
REMARK   53  A    between atoms: _124  and  _125
REMARK   54  A    between atoms: _127  and  _129
REMARK   55  A    between atoms: _129  and  _130
REMARK   56  A    between atoms: _132  and  _134
REMARK   57  A    between atoms: _134  and  _135
REMARK   58  A    between atoms: _134  and  _137
REMARK   59  A    between atoms: _137  and  _138
REMARK   60  A    between atoms: _143  and  _145
REMARK   61  A    between atoms: _145  and  _146
REMARK   62  A    between atoms: _145  and  _148
REMARK   63  A    between atoms: _148  and  _149
REMARK   64  A    between atoms: _154  and  _155
REMARK   65  A    between atoms: _157  and  _159
REMARK   66  A    between atoms: _159  and  _160
REMARK   67  A    between atoms: _159  and  _162
REMARK   68  A    between atoms: _162  and  _163
REMARK   69  A    between atoms: _163  and  _164
REMARK   70  A    between atoms: _167  and  _169
REMARK   71  A    between atoms: _169  and  _170
REMARK   72  A    between atoms: _169  and  _172
REMARK   73  A    between atoms: _172  and  _173
REMARK   74  A    between atoms: _173  and  _174
REMARK   75  A    between atoms: _174  and  _175
REMARK   76  A    between atoms: _184  and  _186
REMARK   77  A    between atoms: _186  and  _187
REMARK   78  A    between atoms: _186  and  _189
REMARK   79  A    between atoms: _189  and  _190
REMARK   80  A    between atoms: _193  and  _195
REMARK   81  A    between atoms: _195  and  _196
REMARK   82  A    between atoms: _195  and  _198
REMARK   83  A    between atoms: _198  and  _199
REMARK   84  A    between atoms: _199  and  _200
REMARK   85  A    between atoms: _200  and  _201
REMARK   86  A    between atoms: _210  and  _212
REMARK   87  A    between atoms: _212  and  _213
REMARK   88  A    between atoms: _212  and  _215
REMARK   89  A    between atoms: _215  and  _216
REMARK   90  A    between atoms: _219  and  _221
REMARK   91  A    between atoms: _221  and  _222
REMARK   92  A    between atoms: _221  and  _224
REMARK   93  A    between atoms: _224  and  _225
REMARK   94  A    between atoms: _225  and  _226
REMARK   95  A    between atoms: _228  and  _230
REMARK   96  A    between atoms: _230  and  _231
REMARK   97  A    between atoms: _230  and  _233
REMARK   98  A    between atoms: _233  and  _234
REMARK   99  A    between atoms: _237  and  _239
REMARK  100  A    between atoms: _239  and  _240
REMARK  101  A    between atoms: _239  and  _242
REMARK  102  A    between atoms: _242  and  _243
REMARK  103  A    between atoms: _246  and  _248
REMARK  104  A    between atoms: _248  and  _249
REMARK  105  A    between atoms: _248  and  _251
REMARK  106  A    between atoms: _251  and  _252
REMARK  107  A    between atoms: _252  and  _253
REMARK  108  A    between atoms: _258  and  _260
REMARK  109  A    between atoms: _260  and  _261
REMARK  110  A    between atoms: _260  and  _263
REMARK  111  A    between atoms: _263  and  _264
REMARK  112  A    between atoms: _267  and  _269
REMARK  113  A    between atoms: _269  and  _270
REMARK  114  A    between atoms: _269  and  _272
REMARK  115  A    between atoms: _272  and  _273
REMARK  116  A    between atoms: _275  and  _277
REMARK  117  A    between atoms: _277  and  _278
REMARK  118  A    between atoms: _281  and  _283
REMARK  119  A    between atoms: _283  and  _284
REMARK  120  A    between atoms: _287  and  _289
REMARK  121  A    between atoms: _289  and  _290
REMARK  122  A    between atoms: _289  and  _292
REMARK  123  A    between atoms: _292  and  _293
REMARK  124  A    between atoms: _293  and  _294
REMARK  125  A    between atoms: _294  and  _295
REMARK  126  A    between atoms: _304  and  _306
REMARK  127  A    between atoms: _306  and  _307
REMARK  128  A    between atoms: _310  and  _312
REMARK  129  A    between atoms: _312  and  _313
REMARK  130  A    between atoms: _312  and  _315
REMARK  131  A    between atoms: _315  and  _316
REMARK  132  A    between atoms: _321  and  _323
REMARK  133  A    between atoms: _323  and  _324
REMARK  134  A    between atoms: _323  and  _326
REMARK  135  A    between atoms: _326  and  _327
REMARK                            x       y       z     vdW  Elec       q    Type
REMARK                         _______ _______ _______ _____ _____    ______ ____
ROOT
ATOM      1  C   LEU A   1       4.510  38.108  -7.115  0.00  0.00    +0.238 C 
ATOM      2  O   LEU A   1       5.277  37.883  -6.166  0.00  0.00    -0.274 OA
ATOM      3  N   MET A   2       4.146  37.150  -7.953  0.00  0.00    -0.298 N 
ATOM      4  H   MET A   2       3.495  37.345  -8.741  0.00  0.00    +0.150 HD
ENDROOT
BRANCH   1   5
ATOM      5  CA  LEU A   1       4.029  39.507  -7.409  0.00  0.00    +0.145 C 
BRANCH   5   6
ATOM      6  N   LEU A   1       3.896  39.690  -8.839  0.00  0.00    -0.238 NA
ATOM      7  H   LEU A   1       2.945  39.776  -9.251  0.00  0.00    +0.142 HD
ENDBRANCH   5   6
BRANCH   5   8
ATOM      8  CB  LEU A   1       2.730  39.790  -6.704  0.00  0.00    +0.026 C 
BRANCH   8   9
ATOM      9  CG  LEU A   1       2.389  41.304  -6.594  0.00  0.00    +0.002 C 
ATOM     10  CD2 LEU A   1       3.243  41.940  -5.563  0.00  0.00    +0.000 C 
ATOM     11  CD1 LEU A   1       0.883  41.502  -6.271  0.00  0.00    +0.000 C 
ENDBRANCH   8   9
ENDBRANCH   5   8
ENDBRANCH   1   5
BRANCH   3  12
ATOM     12  CA  MET A   2       4.692  35.796  -7.735  0.00  0.00    +0.138 C 
BRANCH  12  13
ATOM     13  C   MET A   2       6.173  35.736  -8.104  0.00  0.00    +0.227 C 
ATOM     14  O   MET A   2       6.922  35.059  -7.459  0.00  0.00    -0.286 OA
ENDBRANCH  12  13
BRANCH  12  15
ATOM     15  CB  MET A   2       3.885  34.762  -8.502  0.00  0.00    +0.039 C 
BRANCH  15  16
ATOM     16  CG  MET A   2       2.652  34.343  -7.716  0.00  0.00    +0.060 C 
BRANCH  16  17
ATOM     17  SD  MET A   2       1.805  33.036  -8.514  0.00  0.00    -0.139 S 
ATOM     18  CE  MET A   2       1.181  33.944 -10.077  0.00  0.00    +0.069 C 
ENDBRANCH  16  17
ENDBRANCH  15  16
ENDBRANCH  12  15
ENDBRANCH   3  12
TORSDOF 9
REMARK  Name = ../refined-set-2016/1nli/1nli_pocket.pdb
REMARK  135 active torsions:
REMARK  status: ('A' for Active; 'I' for Inactive)
REMARK    1  A    between atoms: _1  and  _3
REMARK    2  A    between atoms: _3  and  _4
REMARK    3  A    between atoms: _3  and  _6
REMARK    4  A    between atoms: _9  and  _11
REMARK    5  A    between atoms: _11  and  _12
REMARK    6  A    between atoms: _15  and  _17
REMARK    7  A    between atoms: _17  and  _18
REMARK    8  A    between atoms: _17  and  _20
REMARK    9  A    between atoms: _20  and  _21
REMARK   10  A    between atoms: _24  and  _26
REMARK   11  A    between atoms: _26  and  _27
REMARK   12  A    between atoms: _26  and  _29
REMARK   13  A    between atoms: _29  and  _30
REMARK   14  A    between atoms: _33  and  _35
REMARK   15  A    between atoms: _35  and  _36
REMARK   16  A    between atoms: _35  and  _38
REMARK   17  A    between atoms: _38  and  _39
REMARK   18  A    between atoms: _44  and  _46
REMARK   19  A    between atoms: _46  and  _47
REMARK   20  A    between atoms: _46  and  _49
REMARK   21  A    between atoms: _52  and  _54
REMARK   22  A    between atoms: _54  and  _55
REMARK   23  A    between atoms: _54  and  _57
REMARK   24  A    between atoms: _57  and  _58
REMARK   25  A    between atoms: _63  and  _64
REMARK   26  A    between atoms: _66  and  _68
REMARK   27  A    between atoms: _68  and  _69
REMARK   28  A    between atoms: _68  and  _71
REMARK   29  A    between atoms: _71  and  _72
REMARK   30  A    between atoms: _75  and  _77
REMARK   31  A    between atoms: _77  and  _78
REMARK   32  A    between atoms: _77  and  _80
REMARK   33  A    between atoms: _80  and  _81
REMARK   34  A    between atoms: _81  and  _82
REMARK   35  A    between atoms: _84  and  _86
REMARK   36  A    between atoms: _86  and  _87
REMARK   37  A    between atoms: _89  and  _91
REMARK   38  A    between atoms: _91  and  _92
REMARK   39  A    between atoms: _91  and  _94
REMARK   40  A    between atoms: _94  and  _95
REMARK   41  A    between atoms: _101  and  _103
REMARK   42  A    between atoms: _103  and  _104
REMARK   43  A    between atoms: _103  and  _106
REMARK   44  A    between atoms: _106  and  _107
REMARK   45  A    between atoms: _107  and  _108
REMARK   46  A    between atoms: _111  and  _113
REMARK   47  A    between atoms: _113  and  _114
REMARK   48  A    between atoms: _113  and  _116
REMARK   49  A    between atoms: _116  and  _117
REMARK   50  A    between atoms: _119  and  _121
REMARK   51  A    between atoms: _121  and  _122
REMARK   52  A    between atoms: _121  and  _124
REMARK   53  A    between atoms: _124  and  _125
REMARK   54  A    between atoms: _127  and  _129
REMARK   55  A    between atoms: _129  and  _130
REMARK   56  A    between atoms: _132  and  _134
REMARK   57  A    between atoms: _134  and  _135
REMARK   58  A    between atoms: _134  and  _137
REMARK   59  A    between atoms: _137  and  _138
REMARK   60  A    between atoms: _143  and  _145
REMARK   61  A    between atoms: _145  and  _146
REMARK   62  A    between atoms: _145  and  _148
REMARK   63  A    between atoms: _148  and  _149
REMARK   64  A    between atoms: _154  and  _155
REMARK   65  A    between atoms: _157  and  _159
REMARK   66  A    between atoms: _159  and  _160
REMARK   67  A    between atoms: _159  and  _162
REMARK   68  A    between atoms: _162  and  _163
REMARK   69  A    between atoms: _163  and  _164
REMARK   70  A    between atoms: _167  and  _169
REMARK   71  A    between atoms: _169  and  _170
REMARK   72  A    between atoms: _169  and  _172
REMARK   73  A    between atoms: _172  and  _173
REMARK   74  A    between atoms: _173  and  _174
REMARK   75  A    between atoms: _174  and  _175
REMARK   76  A    between atoms: _184  and  _186
REMARK   77  A    between atoms: _186  and  _187
REMARK   78  A    between atoms: _186  and  _189
REMARK   79  A    between atoms: _189  and  _190
REMARK   80  A    between atoms: _193  and  _195
REMARK   81  A    between atoms: _195  and  _196
REMARK   82  A    between atoms: _195  and  _198
REMARK   83  A    between atoms: _198  and  _199
REMARK   84  A    between atoms: _199  and  _200
REMARK   85  A    between atoms: _200  and  _201
REMARK   86  A    between atoms: _210  and  _212
REMARK   87  A    between atoms: _212  and  _213
REMARK   88  A    between atoms: _212  and  _215
REMARK   89  A    between atoms: _215  and  _216
REMARK   90  A    between atoms: _219  and  _221
REMARK   91  A    between atoms: _221  and  _222
REMARK   92  A    between atoms: _221  and  _224
REMARK   93  A    between atoms: _224  and  _225
REMARK   94  A    between atoms: _225  and  _226
REMARK   95  A    between atoms: _228  and  _230
REMARK   96  A    between atoms: _230  and  _231
REMARK   97  A    between atoms: _230  and  _233
REMARK   98  A    between atoms: _233  and  _234
REMARK   99  A    between atoms: _237  and  _239
REMARK  100  A    between atoms: _239  and  _240
REMARK  101  A    between atoms: _239  and  _242
REMARK  102  A    between atoms: _242  and  _243
REMARK  103  A    between atoms: _246  and  _248
REMARK  104  A    between atoms: _248  and  _249
REMARK  105  A    between atoms: _248  and  _251
REMARK  106  A    between atoms: _251  and  _252
REMARK  107  A    between atoms: _252  and  _253
REMARK  108  A    between atoms: _258  and  _260
REMARK  109  A    between atoms: _260  and  _261
REMARK  110  A    between atoms: _260  and  _263
REMARK  111  A    between atoms: _263  and  _264
REMARK  112  A    between atoms: _267  and  _269
REMARK  113  A    between atoms: _269  and  _270
REMARK  114  A    between atoms: _269  and  _272
REMARK  115  A    between atoms: _272  and  _273
REMARK  116  A    between atoms: _275  and  _277
REMARK  117  A    between atoms: _277  and  _278
REMARK  118  A    between atoms: _281  and  _283
REMARK  119  A    between atoms: _283  and  _284
REMARK  120  A    between atoms: _287  and  _289
REMARK  121  A    between atoms: _289  and  _290
REMARK  122  A    between atoms: _289  and  _292
REMARK  123  A    between atoms: _292  and  _293
REMARK  124  A    between atoms: _293  and  _294
REMARK  125  A    between atoms: _294  and  _295
REMARK  126  A    between atoms: _304  and  _306
REMARK  127  A    between atoms: _306  and  _307
REMARK  128  A    between atoms: _310  and  _312
REMARK  129  A    between atoms: _312  and  _313
REMARK  130  A    between atoms: _312  and  _315
REMARK  131  A    between atoms: _315  and  _316
REMARK  132  A    between atoms: _321  and  _323
REMARK  133  A    between atoms: _323  and  _324
REMARK  134  A    between atoms: _323  and  _326
REMARK  135  A    between atoms: _326  and  _327
REMARK                            x       y       z     vdW  Elec       q    Type
REMARK                         _______ _______ _______ _____ _____    ______ ____
ROOT
ATOM      1  CA  ILE A   2       7.884  36.513  -3.847  0.00  0.00    +0.148 C 
ENDROOT
BRANCH   1   4
ATOM      2  C   LEU A   1       8.932  38.083  -5.378  0.00  0.00    +0.238 C 
ATOM      3  O   LEU A   1       9.971  38.079  -4.704  0.00  0.00    -0.274 OA
ATOM      4  N   ILE A   2       7.887  37.355  -5.048  0.00  0.00    -0.297 N 
ATOM      5  H   ILE A   2       7.042  37.377  -5.654  0.00  0.00    +0.150 HD
BRANCH   2   6
ATOM      6  CA  LEU A   1       8.756  39.011  -6.598  0.00  0.00    +0.145 C 
BRANCH   6   7
ATOM      7  N   LEU A   1       8.152  38.327  -7.725  0.00  0.00    -0.238 NA
ATOM      8  H   LEU A   1       7.262  38.676  -8.134  0.00  0.00    +0.142 HD
ENDBRANCH   6   7
BRANCH   6   9
ATOM      9  CB  LEU A   1       7.866  40.170  -6.223  0.00  0.00    +0.026 C 
BRANCH   9  10
ATOM     10  CG  LEU A   1       8.344  41.150  -5.210  0.00  0.00    +0.002 C 
ATOM     11  CD2 LEU A   1       7.381  42.387  -5.318  0.00  0.00    +0.000 C 
ATOM     12  CD1 LEU A   1       9.767  41.662  -5.497  0.00  0.00    +0.000 C 
ENDBRANCH   9  10
ENDBRANCH   6   9
ENDBRANCH   2   6
ENDBRANCH   1   4
BRANCH   1  13
ATOM     13  C   ILE A   2       8.992  35.448  -3.932  0.00  0.00    +0.241 C 
ATOM     14  O   ILE A   2       9.783  35.260  -3.022  0.00  0.00    -0.273 OA
ATOM     15  N   GLN A   3       9.068  34.812  -5.086  0.00  0.00    -0.298 N 
ATOM     16  H   GLN A   3       8.419  35.081  -5.853  0.00  0.00    +0.150 HD
BRANCH  15  17
ATOM     17  CA  GLN A   3      10.011  33.769  -5.315  0.00  0.00    +0.137 C 
BRANCH  17  18
ATOM     18  C   GLN A   3      11.421  34.294  -5.364  0.00  0.00    +0.227 C 
ATOM     19  O   GLN A   3      12.348  33.613  -4.923  0.00  0.00    -0.286 OA
ENDBRANCH  17  18
BRANCH  17  20
ATOM     20  CB  GLN A   3       9.620  32.987  -6.550  0.00  0.00    +0.037 C 
BRANCH  20  21
ATOM     21  CG  GLN A   3       8.317  32.160  -6.378  0.00  0.00    +0.087 C 
BRANCH  21  22
ATOM     22  CD  GLN A   3       7.878  31.467  -7.629  0.00  0.00    +0.219 C 
ATOM     23  OE1 GLN A   3       8.028  30.260  -7.755  0.00  0.00    -0.275 OA
ATOM     24  NE2 GLN A   3       7.379  32.226  -8.604  0.00  0.00    -0.329 N 
ATOM     25 HE21 GLN A   3       7.266  33.250  -8.460  0.00  0.00    +0.145 HD
ATOM     26 HE22 GLN A   3       7.103  31.795  -9.509  0.00  0.00    +0.145 HD
ENDBRANCH  21  22
ENDBRANCH  20  21
ENDBRANCH  17  20
ENDBRANCH  15  17
ENDBRANCH   1  13
BRANCH   1  27
ATOM     27  CB  ILE A   2       6.522  35.827  -3.710  0.00  0.00    +0.027 C 
ATOM     28  CG2 ILE A   2       6.601  34.673  -2.720  0.00  0.00    +0.002 C 
BRANCH  27  29
ATOM     29  CG1 ILE A   2       5.452  36.821  -3.180  0.00  0.00    +0.002 C 
ATOM     30  CD1 ILE A   2       4.012  36.300  -3.414  0.00  0.00    +0.000 C 
ENDBRANCH  27  29
ENDBRANCH   1  27
TORSDOF 13
REMARK  Name = ../refined-set-2016/1nli/1nli_pocket.pdb
REMARK  135 active torsions:
REMARK  status: ('A' for Active; 'I' for Inactive)
REMARK    1  A    between atoms: _1  and  _3
REMARK    2  A    between atoms: _3  and  _4
REMARK    3  A    between atoms: _3  and  _6
REMARK    4  A    between atoms: _9  and  _11
REMARK    5  A    between atoms: _11  and  _12
REMARK    6  A    between atoms: _15  and  _17
REMARK    7  A    between atoms: _17  and  _18
REMARK    8  A    between atoms: _17  and  _20
REMARK    9  A    between atoms: _20  and  _21
REMARK   10  A    between atoms: _24  and  _26
REMARK   11  A    between atoms: _26  and  _27
REMARK   12  A    between atoms: _26  and  _29
REMARK   13  A    between atoms: _29  and  _30
REMARK   14  A    between atoms: _33  and  _35
REMARK   15  A    between atoms: _35  and  _36
REMARK   16  A    between atoms: _35  and  _38
REMARK   17  A    between atoms: _38  and  _39
REMARK   18  A    between atoms: _44  and  _46
REMARK   19  A    between atoms: _46  and  _47
REMARK   20  A    between atoms: _46  and  _49
REMARK   21  A    between atoms: _52  and  _54
REMARK   22  A    between atoms: _54  and  _55
REMARK   23  A    between atoms: _54  and  _57
REMARK   24  A    between atoms: _57  and  _58
REMARK   25  A    between atoms: _63  and  _64
REMARK   26  A    between atoms: _66  and  _68
REMARK   27  A    between atoms: _68  and  _69
REMARK   28  A    between atoms: _68  and  _71
REMARK   29  A    between atoms: _71  and  _72
REMARK   30  A    between atoms: _75  and  _77
REMARK   31  A    between atoms: _77  and  _78
REMARK   32  A    between atoms: _77  and  _80
REMARK   33  A    between atoms: _80  and  _81
REMARK   34  A    between atoms: _81  and  _82
REMARK   35  A    between atoms: _84  and  _86
REMARK   36  A    between atoms: _86  and  _87
REMARK   37  A    between atoms: _89  and  _91
REMARK   38  A    between atoms: _91  and  _92
REMARK   39  A    between atoms: _91  and  _94
REMARK   40  A    between atoms: _94  and  _95
REMARK   41  A    between atoms: _101  and  _103
REMARK   42  A    between atoms: _103  and  _104
REMARK   43  A    between atoms: _103  and  _106
REMARK   44  A    between atoms: _106  and  _107
REMARK   45  A    between atoms: _107  and  _108
REMARK   46  A    between atoms: _111  and  _113
REMARK   47  A    between atoms: _113  and  _114
REMARK   48  A    between atoms: _113  and  _116
REMARK   49  A    between atoms: _116  and  _117
REMARK   50  A    between atoms: _119  and  _121
REMARK   51  A    between atoms: _121  and  _122
REMARK   52  A    between atoms: _121  and  _124
REMARK   53  A    between atoms: _124  and  _125
REMARK   54  A    between atoms: _127  and  _129
REMARK   55  A    between atoms: _129  and  _130
REMARK   56  A    between atoms: _132  and  _134
REMARK   57  A    between atoms: _134  and  _135
REMARK   58  A    between atoms: _134  and  _137
REMARK   59  A    between atoms: _137  and  _138
REMARK   60  A    between atoms: _143  and  _145
REMARK   61  A    between atoms: _145  and  _146
REMARK   62  A    between atoms: _145  and  _148
REMARK   63  A    between atoms: _148  and  _149
REMARK   64  A    between atoms: _154  and  _155
REMARK   65  A    between atoms: _157  and  _159
REMARK   66  A    between atoms: _159  and  _160
REMARK   67  A    between atoms: _159  and  _162
REMARK   68  A    between atoms: _162  and  _163
REMARK   69  A    between atoms: _163  and  _164
REMARK   70  A    between atoms: _167  and  _169
REMARK   71  A    between atoms: _169  and  _170
REMARK   72  A    between atoms: _169  and  _172
REMARK   73  A    between atoms: _172  and  _173
REMARK   74  A    between atoms: _173  and  _174
REMARK   75  A    between atoms: _174  and  _175
REMARK   76  A    between atoms: _184  and  _186
REMARK   77  A    between atoms: _186  and  _187
REMARK   78  A    between atoms: _186  and  _189
REMARK   79  A    between atoms: _189  and  _190
REMARK   80  A    between atoms: _193  and  _195
REMARK   81  A    between atoms: _195  and  _196
REMARK   82  A    between atoms: _195  and  _198
REMARK   83  A    between atoms: _198  and  _199
REMARK   84  A    between atoms: _199  and  _200
REMARK   85  A    between atoms: _200  and  _201
REMARK   86  A    between atoms: _210  and  _212
REMARK   87  A    between atoms: _212  and  _213
REMARK   88  A    between atoms: _212  and  _215
REMARK   89  A    between atoms: _215  and  _216
REMARK   90  A    between atoms: _219  and  _221
REMARK   91  A    between atoms: _221  and  _222
REMARK   92  A    between atoms: _221  and  _224
REMARK   93  A    between atoms: _224  and  _225
REMARK   94  A    between atoms: _225  and  _226
REMARK   95  A    between atoms: _228  and  _230
REMARK   96  A    between atoms: _230  and  _231
REMARK   97  A    between atoms: _230  and  _233
REMARK   98  A    between atoms: _233  and  _234
REMARK   99  A    between atoms: _237  and  _239
REMARK  100  A    between atoms: _239  and  _240
REMARK  101  A    between atoms: _239  and  _242
REMARK  102  A    between atoms: _242  and  _243
REMARK  103  A    between atoms: _246  and  _248
REMARK  104  A    between atoms: _248  and  _249
REMARK  105  A    between atoms: _248  and  _251
REMARK  106  A    between atoms: _251  and  _252
REMARK  107  A    between atoms: _252  and  _253
REMARK  108  A    between atoms: _258  and  _260
REMARK  109  A    between atoms: _260  and  _261
REMARK  110  A    between atoms: _260  and  _263
REMARK  111  A    between atoms: _263  and  _264
REMARK  112  A    between atoms: _267  and  _269
REMARK  113  A    between atoms: _269  and  _270
REMARK  114  A    between atoms: _269  and  _272
REMARK  115  A    between atoms: _272  and  _273
REMARK  116  A    between atoms: _275  and  _277
REMARK  117  A    between atoms: _277  and  _278
REMARK  118  A    between atoms: _281  and  _283
REMARK  119  A    between atoms: _283  and  _284
REMARK  120  A    between atoms: _287  and  _289
REMARK  121  A    between atoms: _289  and  _290
REMARK  122  A    between atoms: _289  and  _292
REMARK  123  A    between atoms: _292  and  _293
REMARK  124  A    between atoms: _293  and  _294
REMARK  125  A    between atoms: _294  and  _295
REMARK  126  A    between atoms: _304  and  _306
REMARK  127  A    between atoms: _306  and  _307
REMARK  128  A    between atoms: _310  and  _312
REMARK  129  A    between atoms: _312  and  _313
REMARK  130  A    between atoms: _312  and  _315
REMARK  131  A    between atoms: _315  and  _316
REMARK  132  A    between atoms: _321  and  _323
REMARK  133  A    between atoms: _323  and  _324
REMARK  134  A    between atoms: _323  and  _326
REMARK  135  A    between atoms: _326  and  _327
REMARK                            x       y       z     vdW  Elec       q    Type
REMARK                         _______ _______ _______ _____ _____    ______ ____
ROOT
ATOM      1  CA  SER A   2      11.179  35.548   0.232  0.00  0.00    +0.178 C 
ENDROOT
BRANCH   1   3
ATOM      2  C   THR A   1      12.769  36.504  -1.338  0.00  0.00    +0.241 C 
ATOM      3  N   SER A   2      11.552  36.434  -0.870  0.00  0.00    -0.295 N 
ATOM      4  H   SER A   2      10.818  37.033  -1.299  0.00  0.00    +0.150 HD
ATOM      5  O   THR A   1      13.687  35.819  -0.933  0.00  0.00    -0.274 OA
BRANCH   2   6
ATOM      6  CA  THR A   1      13.043  37.478  -2.431  0.00  0.00    +0.172 C 
BRANCH   6   7
ATOM      7  N   THR A   1      12.653  36.863  -3.674  0.00  0.00    -0.236 NA
ATOM      8  H   THR A   1      11.691  36.481  -3.771  0.00  0.00    +0.142 HD
ENDBRANCH   6   7
BRANCH   6   9
ATOM      9  CB  THR A   1      12.340  38.823  -2.224  0.00  0.00    +0.135 C 
ATOM     10  CG2 THR A   1      12.586  39.736  -3.433  0.00  0.00    +0.034 C 
BRANCH   9  11
ATOM     11  OG1 THR A   1      10.946  38.651  -2.220  0.00  0.00    -0.383 OA
ATOM     12  HG1 THR A   1      10.660  38.267  -3.086  0.00  0.00    +0.210 HD
ENDBRANCH   9  11
ENDBRANCH   6   9
ENDBRANCH   2   6
ENDBRANCH   1   3
BRANCH   1  13
ATOM     13  C   SER A   2      11.616  34.125   0.050  0.00  0.00    +0.243 C 
ATOM     14  O   SER A   2      12.205  33.524   0.970  0.00  0.00    -0.273 OA
ATOM     15  N   ALA A   3      11.282  33.531  -1.093  0.00  0.00    -0.297 N 
ATOM     16  H   ALA A   3      10.812  34.068  -1.849  0.00  0.00    +0.150 HD
BRANCH  15  17
ATOM     17  CA  ALA A   3      11.585  32.119  -1.268  0.00  0.00    +0.149 C 
ATOM     18  CB  ALA A   3      10.889  31.518  -2.500  0.00  0.00    +0.031 C 
BRANCH  17  19
ATOM     19  C   ALA A   3      13.080  31.886  -1.353  0.00  0.00    +0.241 C 
ATOM     20  O   ALA A   3      13.572  30.897  -0.836  0.00  0.00    -0.273 OA
ATOM     21  N   ALA A   4      13.780  32.795  -2.005  0.00  0.00    -0.298 N 
ATOM     22  H   ALA A   4      13.289  33.593  -2.456  0.00  0.00    +0.150 HD
BRANCH  21  23
ATOM     23  CA  ALA A   4      15.204  32.700  -2.102  0.00  0.00    +0.137 C 
ATOM     24  CB  ALA A   4      15.760  33.773  -3.035  0.00  0.00    +0.030 C 
BRANCH  23  25
ATOM     25  C   ALA A   4      15.828  32.815  -0.753  0.00  0.00    +0.227 C 
ATOM     26  O   ALA A   4      16.805  32.130  -0.462  0.00  0.00    -0.286 OA
ENDBRANCH  23  25
ENDBRANCH  21  23
ENDBRANCH  17  19
ENDBRANCH  15  17
ENDBRANCH   1  13
BRANCH   1  27
ATOM     27  CB  SER A   2       9.667  35.559   0.459  0.00  0.00    +0.166 C 
BRANCH  27  28
ATOM     28  OG  SER A   2       9.192  36.889   0.733  0.00  0.00    -0.380 OA
ATOM     29  H   SER A   2       9.637  37.236   1.547  0.00  0.00    +0.211 HD
ENDBRANCH  27  28
ENDBRANCH   1  27
TORSDOF 12
REMARK  Name = ../refined-set-2016/1nli/1nli_pocket.pdb
REMARK  135 active torsions:
REMARK  status: ('A' for Active; 'I' for Inactive)
REMARK    1  A    between atoms: _1  and  _3
REMARK    2  A    between atoms: _3  and  _4
REMARK    3  A    between atoms: _3  and  _6
REMARK    4  A    between atoms: _9  and  _11
REMARK    5  A    between atoms: _11  and  _12
REMARK    6  A    between atoms: _15  and  _17
REMARK    7  A    between atoms: _17  and  _18
REMARK    8  A    between atoms: _17  and  _20
REMARK    9  A    between atoms: _20  and  _21
REMARK   10  A    between atoms: _24  and  _26
REMARK   11  A    between atoms: _26  and  _27
REMARK   12  A    between atoms: _26  and  _29
REMARK   13  A    between atoms: _29  and  _30
REMARK   14  A    between atoms: _33  and  _35
REMARK   15  A    between atoms: _35  and  _36
REMARK   16  A    between atoms: _35  and  _38
REMARK   17  A    between atoms: _38  and  _39
REMARK   18  A    between atoms: _44  and  _46
REMARK   19  A    between atoms: _46  and  _47
REMARK   20  A    between atoms: _46  and  _49
REMARK   21  A    between atoms: _52  and  _54
REMARK   22  A    between atoms: _54  and  _55
REMARK   23  A    between atoms: _54  and  _57
REMARK   24  A    between atoms: _57  and  _58
REMARK   25  A    between atoms: _63  and  _64
REMARK   26  A    between atoms: _66  and  _68
REMARK   27  A    between atoms: _68  and  _69
REMARK   28  A    between atoms: _68  and  _71
REMARK   29  A    between atoms: _71  and  _72
REMARK   30  A    between atoms: _75  and  _77
REMARK   31  A    between atoms: _77  and  _78
REMARK   32  A    between atoms: _77  and  _80
REMARK   33  A    between atoms: _80  and  _81
REMARK   34  A    between atoms: _81  and  _82
REMARK   35  A    between atoms: _84  and  _86
REMARK   36  A    between atoms: _86  and  _87
REMARK   37  A    between atoms: _89  and  _91
REMARK   38  A    between atoms: _91  and  _92
REMARK   39  A    between atoms: _91  and  _94
REMARK   40  A    between atoms: _94  and  _95
REMARK   41  A    between atoms: _101  and  _103
REMARK   42  A    between atoms: _103  and  _104
REMARK   43  A    between atoms: _103  and  _106
REMARK   44  A    between atoms: _106  and  _107
REMARK   45  A    between atoms: _107  and  _108
REMARK   46  A    between atoms: _111  and  _113
REMARK   47  A    between atoms: _113  and  _114
REMARK   48  A    between atoms: _113  and  _116
REMARK   49  A    between atoms: _116  and  _117
REMARK   50  A    between atoms: _119  and  _121
REMARK   51  A    between atoms: _121  and  _122
REMARK   52  A    between atoms: _121  and  _124
REMARK   53  A    between atoms: _124  and  _125
REMARK   54  A    between atoms: _127  and  _129
REMARK   55  A    between atoms: _129  and  _130
REMARK   56  A    between atoms: _132  and  _134
REMARK   57  A    between atoms: _134  and  _135
REMARK   58  A    between atoms: _134  and  _137
REMARK   59  A    between atoms: _137  and  _138
REMARK   60  A    between atoms: _143  and  _145
REMARK   61  A    between atoms: _145  and  _146
REMARK   62  A    between atoms: _145  and  _148
REMARK   63  A    between atoms: _148  and  _149
REMARK   64  A    between atoms: _154  and  _155
REMARK   65  A    between atoms: _157  and  _159
REMARK   66  A    between atoms: _159  and  _160
REMARK   67  A    between atoms: _159  and  _162
REMARK   68  A    between atoms: _162  and  _163
REMARK   69  A    between atoms: _163  and  _164
REMARK   70  A    between atoms: _167  and  _169
REMARK   71  A    between atoms: _169  and  _170
REMARK   72  A    between atoms: _169  and  _172
REMARK   73  A    between atoms: _172  and  _173
REMARK   74  A    between atoms: _173  and  _174
REMARK   75  A    between atoms: _174  and  _175
REMARK   76  A    between atoms: _184  and  _186
REMARK   77  A    between atoms: _186  and  _187
REMARK   78  A    between atoms: _186  and  _189
REMARK   79  A    between atoms: _189  and  _190
REMARK   80  A    between atoms: _193  and  _195
REMARK   81  A    between atoms: _195  and  _196
REMARK   82  A    between atoms: _195  and  _198
REMARK   83  A    between atoms: _198  and  _199
REMARK   84  A    between atoms: _199  and  _200
REMARK   85  A    between atoms: _200  and  _201
REMARK   86  A    between atoms: _210  and  _212
REMARK   87  A    between atoms: _212  and  _213
REMARK   88  A    between atoms: _212  and  _215
REMARK   89  A    between atoms: _215  and  _216
REMARK   90  A    between atoms: _219  and  _221
REMARK   91  A    between atoms: _221  and  _222
REMARK   92  A    between atoms: _221  and  _224
REMARK   93  A    between atoms: _224  and  _225
REMARK   94  A    between atoms: _225  and  _226
REMARK   95  A    between atoms: _228  and  _230
REMARK   96  A    between atoms: _230  and  _231
REMARK   97  A    between atoms: _230  and  _233
REMARK   98  A    between atoms: _233  and  _234
REMARK   99  A    between atoms: _237  and  _239
REMARK  100  A    between atoms: _239  and  _240
REMARK  101  A    between atoms: _239  and  _242
REMARK  102  A    between atoms: _242  and  _243
REMARK  103  A    between atoms: _246  and  _248
REMARK  104  A    between atoms: _248  and  _249
REMARK  105  A    between atoms: _248  and  _251
REMARK  106  A    between atoms: _251  and  _252
REMARK  107  A    between atoms: _252  and  _253
REMARK  108  A    between atoms: _258  and  _260
REMARK  109  A    between atoms: _260  and  _261
REMARK  110  A    between atoms: _260  and  _263
REMARK  111  A    between atoms: _263  and  _264
REMARK  112  A    between atoms: _267  and  _269
REMARK  113  A    between atoms: _269  and  _270
REMARK  114  A    between atoms: _269  and  _272
REMARK  115  A    between atoms: _272  and  _273
REMARK  116  A    between atoms: _275  and  _277
REMARK  117  A    between atoms: _277  and  _278
REMARK  118  A    between atoms: _281  and  _283
REMARK  119  A    between atoms: _283  and  _284
REMARK  120  A    between atoms: _287  and  _289
REMARK  121  A    between atoms: _289  and  _290
REMARK  122  A    between atoms: _289  and  _292
REMARK  123  A    between atoms: _292  and  _293
REMARK  124  A    between atoms: _293  and  _294
REMARK  125  A    between atoms: _294  and  _295
REMARK  126  A    between atoms: _304  and  _306
REMARK  127  A    between atoms: _306  and  _307
REMARK  128  A    between atoms: _310  and  _312
REMARK  129  A    between atoms: _312  and  _313
REMARK  130  A    between atoms: _312  and  _315
REMARK  131  A    between atoms: _315  and  _316
REMARK  132  A    between atoms: _321  and  _323
REMARK  133  A    between atoms: _323  and  _324
REMARK  134  A    between atoms: _323  and  _326
REMARK  135  A    between atoms: _326  and  _327
REMARK                            x       y       z     vdW  Elec       q    Type
REMARK                         _______ _______ _______ _____ _____    ______ ____
ROOT
ATOM      1  NE  ARG A   1       9.513  32.145   3.378  0.00  0.00    -0.265 N 
ATOM      2  HE  ARG A   1       9.649  32.406   4.375  0.00  0.00    +0.259 HD
ATOM      3  CZ  ARG A   1       8.508  32.693   2.708  0.00  0.00    +0.342 C 
ATOM      4  NH2 ARG A   1       7.717  33.556   3.278  0.00  0.00    -0.292 N 
ATOM      5 HH21 ARG A   1       7.869  33.824   4.271  0.00  0.00    +0.255 HD
ATOM      6 HH22 ARG A   1       6.933  33.977   2.740  0.00  0.00    +0.255 HD
ATOM      7  NH1 ARG A   1       8.289  32.352   1.446  0.00  0.00    -0.292 N 
ATOM      8 HH11 ARG A   1       8.905  31.655   0.981  0.00  0.00    +0.255 HD
ATOM      9 HH12 ARG A   1       7.501  32.782   0.921  0.00  0.00    +0.255 HD
ENDROOT
BRANCH   1  10
ATOM     10  CD  ARG A   1      10.429  31.198   2.778  0.00  0.00    +0.174 C 
BRANCH  10  11
ATOM     11  CG  ARG A   1      11.841  31.316   3.280  0.00  0.00    +0.045 C 
BRANCH  11  12
ATOM     12  CB  ARG A   1      12.795  30.314   2.670  0.00  0.00    +0.029 C 
BRANCH  12  13
ATOM     13  CA  ARG A   1      14.287  30.648   2.797  0.00  0.00    +0.133 C 
BRANCH  13  14
ATOM     14  N   ARG A   1      14.580  31.851   2.031  0.00  0.00    -0.239 NA
ATOM     15  H   ARG A   1      13.907  32.176   1.308  0.00  0.00    +0.142 HD
ENDBRANCH  13  14
BRANCH  13  16
ATOM     16  C   ARG A   1      15.128  29.438   2.360  0.00  0.00    +0.224 C 
ATOM     17  O   ARG A   1      15.396  28.540   3.169  0.00  0.00    -0.287 OA
ENDBRANCH  13  16
ENDBRANCH  12  13
ENDBRANCH  11  12
ENDBRANCH  10  11
ENDBRANCH   1  10
TORSDOF 6
REMARK  Name = ../refined-set-2016/1nli/1nli_pocket.pdb
REMARK  135 active torsions:
REMARK  status: ('A' for Active; 'I' for Inactive)
REMARK    1  A    between atoms: _1  and  _3
REMARK    2  A    between atoms: _3  and  _4
REMARK    3  A    between atoms: _3  and  _6
REMARK    4  A    between atoms: _9  and  _11
REMARK    5  A    between atoms: _11  and  _12
REMARK    6  A    between atoms: _15  and  _17
REMARK    7  A    between atoms: _17  and  _18
REMARK    8  A    between atoms: _17  and  _20
REMARK    9  A    between atoms: _20  and  _21
REMARK   10  A    between atoms: _24  and  _26
REMARK   11  A    between atoms: _26  and  _27
REMARK   12  A    between atoms: _26  and  _29
REMARK   13  A    between atoms: _29  and  _30
REMARK   14  A    between atoms: _33  and  _35
REMARK   15  A    between atoms: _35  and  _36
REMARK   16  A    between atoms: _35  and  _38
REMARK   17  A    between atoms: _38  and  _39
REMARK   18  A    between atoms: _44  and  _46
REMARK   19  A    between atoms: _46  and  _47
REMARK   20  A    between atoms: _46  and  _49
REMARK   21  A    between atoms: _52  and  _54
REMARK   22  A    between atoms: _54  and  _55
REMARK   23  A    between atoms: _54  and  _57
REMARK   24  A    between atoms: _57  and  _58
REMARK   25  A    between atoms: _63  and  _64
REMARK   26  A    between atoms: _66  and  _68
REMARK   27  A    between atoms: _68  and  _69
REMARK   28  A    between atoms: _68  and  _71
REMARK   29  A    between atoms: _71  and  _72
REMARK   30  A    between atoms: _75  and  _77
REMARK   31  A    between atoms: _77  and  _78
REMARK   32  A    between atoms: _77  and  _80
REMARK   33  A    between atoms: _80  and  _81
REMARK   34  A    between atoms: _81  and  _82
REMARK   35  A    between atoms: _84  and  _86
REMARK   36  A    between atoms: _86  and  _87
REMARK   37  A    between atoms: _89  and  _91
REMARK   38  A    between atoms: _91  and  _92
REMARK   39  A    between atoms: _91  and  _94
REMARK   40  A    between atoms: _94  and  _95
REMARK   41  A    between atoms: _101  and  _103
REMARK   42  A    between atoms: _103  and  _104
REMARK   43  A    between atoms: _103  and  _106
REMARK   44  A    between atoms: _106  and  _107
REMARK   45  A    between atoms: _107  and  _108
REMARK   46  A    between atoms: _111  and  _113
REMARK   47  A    between atoms: _113  and  _114
REMARK   48  A    between atoms: _113  and  _116
REMARK   49  A    between atoms: _116  and  _117
REMARK   50  A    between atoms: _119  and  _121
REMARK   51  A    between atoms: _121  and  _122
REMARK   52  A    between atoms: _121  and  _124
REMARK   53  A    between atoms: _124  and  _125
REMARK   54  A    between atoms: _127  and  _129
REMARK   55  A    between atoms: _129  and  _130
REMARK   56  A    between atoms: _132  and  _134
REMARK   57  A    between atoms: _134  and  _135
REMARK   58  A    between atoms: _134  and  _137
REMARK   59  A    between atoms: _137  and  _138
REMARK   60  A    between atoms: _143  and  _145
REMARK   61  A    between atoms: _145  and  _146
REMARK   62  A    between atoms: _145  and  _148
REMARK   63  A    between atoms: _148  and  _149
REMARK   64  A    between atoms: _154  and  _155
REMARK   65  A    between atoms: _157  and  _159
REMARK   66  A    between atoms: _159  and  _160
REMARK   67  A    between atoms: _159  and  _162
REMARK   68  A    between atoms: _162  and  _163
REMARK   69  A    between atoms: _163  and  _164
REMARK   70  A    between atoms: _167  and  _169
REMARK   71  A    between atoms: _169  and  _170
REMARK   72  A    between atoms: _169  and  _172
REMARK   73  A    between atoms: _172  and  _173
REMARK   74  A    between atoms: _173  and  _174
REMARK   75  A    between atoms: _174  and  _175
REMARK   76  A    between atoms: _184  and  _186
REMARK   77  A    between atoms: _186  and  _187
REMARK   78  A    between atoms: _186  and  _189
REMARK   79  A    between atoms: _189  and  _190
REMARK   80  A    between atoms: _193  and  _195
REMARK   81  A    between atoms: _195  and  _196
REMARK   82  A    between atoms: _195  and  _198
REMARK   83  A    between atoms: _198  and  _199
REMARK   84  A    between atoms: _199  and  _200
REMARK   85  A    between atoms: _200  and  _201
REMARK   86  A    between atoms: _210  and  _212
REMARK   87  A    between atoms: _212  and  _213
REMARK   88  A    between atoms: _212  and  _215
REMARK   89  A    between atoms: _215  and  _216
REMARK   90  A    between atoms: _219  and  _221
REMARK   91  A    between atoms: _221  and  _222
REMARK   92  A    between atoms: _221  and  _224
REMARK   93  A    between atoms: _224  and  _225
REMARK   94  A    between atoms: _225  and  _226
REMARK   95  A    between atoms: _228  and  _230
REMARK   96  A    between atoms: _230  and  _231
REMARK   97  A    between atoms: _230  and  _233
REMARK   98  A    between atoms: _233  and  _234
REMARK   99  A    between atoms: _237  and  _239
REMARK  100  A    between atoms: _239  and  _240
REMARK  101  A    between atoms: _239  and  _242
REMARK  102  A    between atoms: _242  and  _243
REMARK  103  A    between atoms: _246  and  _248
REMARK  104  A    between atoms: _248  and  _249
REMARK  105  A    between atoms: _248  and  _251
REMARK  106  A    between atoms: _251  and  _252
REMARK  107  A    between atoms: _252  and  _253
REMARK  108  A    between atoms: _258  and  _260
REMARK  109  A    between atoms: _260  and  _261
REMARK  110  A    between atoms: _260  and  _263
REMARK  111  A    between atoms: _263  and  _264
REMARK  112  A    between atoms: _267  and  _269
REMARK  113  A    between atoms: _269  and  _270
REMARK  114  A    between atoms: _269  and  _272
REMARK  115  A    between atoms: _272  and  _273
REMARK  116  A    between atoms: _275  and  _277
REMARK  117  A    between atoms: _277  and  _278
REMARK  118  A    between atoms: _281  and  _283
REMARK  119  A    between atoms: _283  and  _284
REMARK  120  A    between atoms: _287  and  _289
REMARK  121  A    between atoms: _289  and  _290
REMARK  122  A    between atoms: _289  and  _292
REMARK  123  A    between atoms: _292  and  _293
REMARK  124  A    between atoms: _293  and  _294
REMARK  125  A    between atoms: _294  and  _295
REMARK  126  A    between atoms: _304  and  _306
REMARK  127  A    between atoms: _306  and  _307
REMARK  128  A    between atoms: _310  and  _312
REMARK  129  A    between atoms: _312  and  _313
REMARK  130  A    between atoms: _312  and  _315
REMARK  131  A    between atoms: _315  and  _316
REMARK  132  A    between atoms: _321  and  _323
REMARK  133  A    between atoms: _323  and  _324
REMARK  134  A    between atoms: _323  and  _326
REMARK  135  A    between atoms: _326  and  _327
REMARK                            x       y       z     vdW  Elec       q    Type
REMARK                         _______ _______ _______ _____ _____    ______ ____
ROOT
ATOM      1  CA  ASN A   2       5.006  24.584  -0.766  0.00  0.00    +0.146 C 
ENDROOT
BRANCH   1   4
ATOM      2  C   ALA A   1       6.822  26.222  -0.793  0.00  0.00    +0.238 C 
ATOM      3  O   ALA A   1       6.461  26.678   0.282  0.00  0.00    -0.274 OA
ATOM      4  N   ASN A   2       6.226  25.145  -1.334  0.00  0.00    -0.298 N 
ATOM      5  H   ASN A   2       6.645  24.702  -2.177  0.00  0.00    +0.150 HD
BRANCH   2   6
ATOM      6  CA  ALA A   1       8.081  26.752  -1.425  0.00  0.00    +0.145 C 
ATOM      7  CB  ALA A   1       7.765  27.621  -2.683  0.00  0.00    +0.028 C 
BRANCH   6   8
ATOM      8  N   ALA A   1       8.913  25.648  -1.798  0.00  0.00    -0.238 NA
ATOM      9  H   ALA A   1       9.131  25.501  -2.804  0.00  0.00    +0.142 HD
ENDBRANCH   6   8
ENDBRANCH   2   6
ENDBRANCH   1   4
BRANCH   1  10
ATOM     10  C   ASN A   2       5.213  24.087   0.689  0.00  0.00    +0.227 C 
ATOM     11  O   ASN A   2       4.295  24.178   1.541  0.00  0.00    -0.286 OA
ENDBRANCH   1  10
BRANCH   1  12
ATOM     12  CB  ASN A   2       4.531  23.349  -1.569  0.00  0.00    +0.112 C 
BRANCH  12  13
ATOM     13  CG  ASN A   2       3.935  23.704  -2.949  0.00  0.00    +0.222 C 
ATOM     14  OD1 ASN A   2       3.712  24.882  -3.242  0.00  0.00    -0.275 OA
ATOM     15  ND2 ASN A   2       3.664  22.654  -3.793  0.00  0.00    -0.329 N 
ATOM     16 HD21 ASN A   2       3.872  21.680  -3.495  0.00  0.00    +0.145 HD
ATOM     17 HD22 ASN A   2       3.251  22.834  -4.730  0.00  0.00    +0.145 HD
ENDBRANCH  12  13
ENDBRANCH   1  12
TORSDOF 6
REMARK  Name = ../refined-set-2016/1nli/1nli_pocket.pdb
REMARK  135 active torsions:
REMARK  status: ('A' for Active; 'I' for Inactive)
REMARK    1  A    between atoms: _1  and  _3
REMARK    2  A    between atoms: _3  and  _4
REMARK    3  A    between atoms: _3  and  _6
REMARK    4  A    between atoms: _9  and  _11
REMARK    5  A    between atoms: _11  and  _12
REMARK    6  A    between atoms: _15  and  _17
REMARK    7  A    between atoms: _17  and  _18
REMARK    8  A    between atoms: _17  and  _20
REMARK    9  A    between atoms: _20  and  _21
REMARK   10  A    between atoms: _24  and  _26
REMARK   11  A    between atoms: _26  and  _27
REMARK   12  A    between atoms: _26  and  _29
REMARK   13  A    between atoms: _29  and  _30
REMARK   14  A    between atoms: _33  and  _35
REMARK   15  A    between atoms: _35  and  _36
REMARK   16  A    between atoms: _35  and  _38
REMARK   17  A    between atoms: _38  and  _39
REMARK   18  A    between atoms: _44  and  _46
REMARK   19  A    between atoms: _46  and  _47
REMARK   20  A    between atoms: _46  and  _49
REMARK   21  A    between atoms: _52  and  _54
REMARK   22  A    between atoms: _54  and  _55
REMARK   23  A    between atoms: _54  and  _57
REMARK   24  A    between atoms: _57  and  _58
REMARK   25  A    between atoms: _63  and  _64
REMARK   26  A    between atoms: _66  and  _68
REMARK   27  A    between atoms: _68  and  _69
REMARK   28  A    between atoms: _68  and  _71
REMARK   29  A    between atoms: _71  and  _72
REMARK   30  A    between atoms: _75  and  _77
REMARK   31  A    between atoms: _77  and  _78
REMARK   32  A    between atoms: _77  and  _80
REMARK   33  A    between atoms: _80  and  _81
REMARK   34  A    between atoms: _81  and  _82
REMARK   35  A    between atoms: _84  and  _86
REMARK   36  A    between atoms: _86  and  _87
REMARK   37  A    between atoms: _89  and  _91
REMARK   38  A    between atoms: _91  and  _92
REMARK   39  A    between atoms: _91  and  _94
REMARK   40  A    between atoms: _94  and  _95
REMARK   41  A    between atoms: _101  and  _103
REMARK   42  A    between atoms: _103  and  _104
REMARK   43  A    between atoms: _103  and  _106
REMARK   44  A    between atoms: _106  and  _107
REMARK   45  A    between atoms: _107  and  _108
REMARK   46  A    between atoms: _111  and  _113
REMARK   47  A    between atoms: _113  and  _114
REMARK   48  A    between atoms: _113  and  _116
REMARK   49  A    between atoms: _116  and  _117
REMARK   50  A    between atoms: _119  and  _121
REMARK   51  A    between atoms: _121  and  _122
REMARK   52  A    between atoms: _121  and  _124
REMARK   53  A    between atoms: _124  and  _125
REMARK   54  A    between atoms: _127  and  _129
REMARK   55  A    between atoms: _129  and  _130
REMARK   56  A    between atoms: _132  and  _134
REMARK   57  A    between atoms: _134  and  _135
REMARK   58  A    between atoms: _134  and  _137
REMARK   59  A    between atoms: _137  and  _138
REMARK   60  A    between atoms: _143  and  _145
REMARK   61  A    between atoms: _145  and  _146
REMARK   62  A    between atoms: _145  and  _148
REMARK   63  A    between atoms: _148  and  _149
REMARK   64  A    between atoms: _154  and  _155
REMARK   65  A    between atoms: _157  and  _159
REMARK   66  A    between atoms: _159  and  _160
REMARK   67  A    between atoms: _159  and  _162
REMARK   68  A    between atoms: _162  and  _163
REMARK   69  A    between atoms: _163  and  _164
REMARK   70  A    between atoms: _167  and  _169
REMARK   71  A    between atoms: _169  and  _170
REMARK   72  A    between atoms: _169  and  _172
REMARK   73  A    between atoms: _172  and  _173
REMARK   74  A    between atoms: _173  and  _174
REMARK   75  A    between atoms: _174  and  _175
REMARK   76  A    between atoms: _184  and  _186
REMARK   77  A    between atoms: _186  and  _187
REMARK   78  A    between atoms: _186  and  _189
REMARK   79  A    between atoms: _189  and  _190
REMARK   80  A    between atoms: _193  and  _195
REMARK   81  A    between atoms: _195  and  _196
REMARK   82  A    between atoms: _195  and  _198
REMARK   83  A    between atoms: _198  and  _199
REMARK   84  A    between atoms: _199  and  _200
REMARK   85  A    between atoms: _200  and  _201
REMARK   86  A    between atoms: _210  and  _212
REMARK   87  A    between atoms: _212  and  _213
REMARK   88  A    between atoms: _212  and  _215
REMARK   89  A    between atoms: _215  and  _216
REMARK   90  A    between atoms: _219  and  _221
REMARK   91  A    between atoms: _221  and  _222
REMARK   92  A    between atoms: _221  and  _224
REMARK   93  A    between atoms: _224  and  _225
REMARK   94  A    between atoms: _225  and  _226
REMARK   95  A    between atoms: _228  and  _230
REMARK   96  A    between atoms: _230  and  _231
REMARK   97  A    between atoms: _230  and  _233
REMARK   98  A    between atoms: _233  and  _234
REMARK   99  A    between atoms: _237  and  _239
REMARK  100  A    between atoms: _239  and  _240
REMARK  101  A    between atoms: _239  and  _242
REMARK  102  A    between atoms: _242  and  _243
REMARK  103  A    between atoms: _246  and  _248
REMARK  104  A    between atoms: _248  and  _249
REMARK  105  A    between atoms: _248  and  _251
REMARK  106  A    between atoms: _251  and  _252
REMARK  107  A    between atoms: _252  and  _253
REMARK  108  A    between atoms: _258  and  _260
REMARK  109  A    between atoms: _260  and  _261
REMARK  110  A    between atoms: _260  and  _263
REMARK  111  A    between atoms: _263  and  _264
REMARK  112  A    between atoms: _267  and  _269
REMARK  113  A    between atoms: _269  and  _270
REMARK  114  A    between atoms: _269  and  _272
REMARK  115  A    between atoms: _272  and  _273
REMARK  116  A    between atoms: _275  and  _277
REMARK  117  A    between atoms: _277  and  _278
REMARK  118  A    between atoms: _281  and  _283
REMARK  119  A    between atoms: _283  and  _284
REMARK  120  A    between atoms: _287  and  _289
REMARK  121  A    between atoms: _289  and  _290
REMARK  122  A    between atoms: _289  and  _292
REMARK  123  A    between atoms: _292  and  _293
REMARK  124  A    between atoms: _293  and  _294
REMARK  125  A    between atoms: _294  and  _295
REMARK  126  A    between atoms: _304  and  _306
REMARK  127  A    between atoms: _306  and  _307
REMARK  128  A    between atoms: _310  and  _312
REMARK  129  A    between atoms: _312  and  _313
REMARK  130  A    between atoms: _312  and  _315
REMARK  131  A    between atoms: _315  and  _316
REMARK  132  A    between atoms: _321  and  _323
REMARK  133  A    between atoms: _323  and  _324
REMARK  134  A    between atoms: _323  and  _326
REMARK  135  A    between atoms: _326  and  _327
REMARK                            x       y       z     vdW  Elec       q    Type
REMARK                         _______ _______ _______ _____ _____    ______ ____
ROOT
ATOM      1  CG  TRP A   1       9.438  27.843   4.519  0.00  0.00    -0.002 A 
ATOM      2  CD2 TRP A   1       9.136  29.040   5.238  0.00  0.00    +0.013 A 
ATOM      3  CE2 TRP A   1      10.280  29.390   5.958  0.00  0.00    +0.056 A 
ATOM      4  CZ2 TRP A   1      10.344  30.533   6.734  0.00  0.00    +0.017 A 
ATOM      5  CH2 TRP A   1       9.240  31.341   6.764  0.00  0.00    +0.001 A 
ATOM      6  CZ3 TRP A   1       8.100  31.009   6.092  0.00  0.00    +0.000 A 
ATOM      7  NE1 TRP A   1      11.211  28.415   5.735  0.00  0.00    -0.352 N 
ATOM      8  HE1 TRP A   1      12.154  28.366   6.170  0.00  0.00    +0.166 HD
ATOM      9  CE3 TRP A   1       8.035  29.871   5.306  0.00  0.00    +0.001 A 
ATOM     10  CD1 TRP A   1      10.697  27.515   4.845  0.00  0.00    +0.068 A 
ENDROOT
BRANCH   1  11
ATOM     11  CB  TRP A   1       8.495  27.058   3.598  0.00  0.00    +0.053 C 
BRANCH  11  12
ATOM     12  CA  TRP A   1       8.364  25.563   4.007  0.00  0.00    +0.137 C 
BRANCH  12  13
ATOM     13  N   TRP A   1       7.554  24.824   3.055  0.00  0.00    -0.239 NA
ATOM     14  H   TRP A   1       7.154  25.302   2.222  0.00  0.00    +0.142 HD
ENDBRANCH  12  13
BRANCH  12  15
ATOM     15  C   TRP A   1       7.815  25.485   5.418  0.00  0.00    +0.224 C 
ATOM     16  O   TRP A   1       8.559  25.189   6.325  0.00  0.00    -0.287 OA
ENDBRANCH  12  15
ENDBRANCH  11  12
ENDBRANCH   1  11
TORSDOF 4
REMARK  Name = ../refined-set-2016/1nli/1nli_pocket.pdb
REMARK  135 active torsions:
REMARK  status: ('A' for Active; 'I' for Inactive)
REMARK    1  A    between atoms: _1  and  _3
REMARK    2  A    between atoms: _3  and  _4
REMARK    3  A    between atoms: _3  and  _6
REMARK    4  A    between atoms: _9  and  _11
REMARK    5  A    between atoms: _11  and  _12
REMARK    6  A    between atoms: _15  and  _17
REMARK    7  A    between atoms: _17  and  _18
REMARK    8  A    between atoms: _17  and  _20
REMARK    9  A    between atoms: _20  and  _21
REMARK   10  A    between atoms: _24  and  _26
REMARK   11  A    between atoms: _26  and  _27
REMARK   12  A    between atoms: _26  and  _29
REMARK   13  A    between atoms: _29  and  _30
REMARK   14  A    between atoms: _33  and  _35
REMARK   15  A    between atoms: _35  and  _36
REMARK   16  A    between atoms: _35  and  _38
REMARK   17  A    between atoms: _38  and  _39
REMARK   18  A    between atoms: _44  and  _46
REMARK   19  A    between atoms: _46  and  _47
REMARK   20  A    between atoms: _46  and  _49
REMARK   21  A    between atoms: _52  and  _54
REMARK   22  A    between atoms: _54  and  _55
REMARK   23  A    between atoms: _54  and  _57
REMARK   24  A    between atoms: _57  and  _58
REMARK   25  A    between atoms: _63  and  _64
REMARK   26  A    between atoms: _66  and  _68
REMARK   27  A    between atoms: _68  and  _69
REMARK   28  A    between atoms: _68  and  _71
REMARK   29  A    between atoms: _71  and  _72
REMARK   30  A    between atoms: _75  and  _77
REMARK   31  A    between atoms: _77  and  _78
REMARK   32  A    between atoms: _77  and  _80
REMARK   33  A    between atoms: _80  and  _81
REMARK   34  A    between atoms: _81  and  _82
REMARK   35  A    between atoms: _84  and  _86
REMARK   36  A    between atoms: _86  and  _87
REMARK   37  A    between atoms: _89  and  _91
REMARK   38  A    between atoms: _91  and  _92
REMARK   39  A    between atoms: _91  and  _94
REMARK   40  A    between atoms: _94  and  _95
REMARK   41  A    between atoms: _101  and  _103
REMARK   42  A    between atoms: _103  and  _104
REMARK   43  A    between atoms: _103  and  _106
REMARK   44  A    between atoms: _106  and  _107
REMARK   45  A    between atoms: _107  and  _108
REMARK   46  A    between atoms: _111  and  _113
REMARK   47  A    between atoms: _113  and  _114
REMARK   48  A    between atoms: _113  and  _116
REMARK   49  A    between atoms: _116  and  _117
REMARK   50  A    between atoms: _119  and  _121
REMARK   51  A    between atoms: _121  and  _122
REMARK   52  A    between atoms: _121  and  _124
REMARK   53  A    between atoms: _124  and  _125
REMARK   54  A    between atoms: _127  and  _129
REMARK   55  A    between atoms: _129  and  _130
REMARK   56  A    between atoms: _132  and  _134
REMARK   57  A    between atoms: _134  and  _135
REMARK   58  A    between atoms: _134  and  _137
REMARK   59  A    between atoms: _137  and  _138
REMARK   60  A    between atoms: _143  and  _145
REMARK   61  A    between atoms: _145  and  _146
REMARK   62  A    between atoms: _145  and  _148
REMARK   63  A    between atoms: _148  and  _149
REMARK   64  A    between atoms: _154  and  _155
REMARK   65  A    between atoms: _157  and  _159
REMARK   66  A    between atoms: _159  and  _160
REMARK   67  A    between atoms: _159  and  _162
REMARK   68  A    between atoms: _162  and  _163
REMARK   69  A    between atoms: _163  and  _164
REMARK   70  A    between atoms: _167  and  _169
REMARK   71  A    between atoms: _169  and  _170
REMARK   72  A    between atoms: _169  and  _172
REMARK   73  A    between atoms: _172  and  _173
REMARK   74  A    between atoms: _173  and  _174
REMARK   75  A    between atoms: _174  and  _175
REMARK   76  A    between atoms: _184  and  _186
REMARK   77  A    between atoms: _186  and  _187
REMARK   78  A    between atoms: _186  and  _189
REMARK   79  A    between atoms: _189  and  _190
REMARK   80  A    between atoms: _193  and  _195
REMARK   81  A    between atoms: _195  and  _196
REMARK   82  A    between atoms: _195  and  _198
REMARK   83  A    between atoms: _198  and  _199
REMARK   84  A    between atoms: _199  and  _200
REMARK   85  A    between atoms: _200  and  _201
REMARK   86  A    between atoms: _210  and  _212
REMARK   87  A    between atoms: _212  and  _213
REMARK   88  A    between atoms: _212  and  _215
REMARK   89  A    between atoms: _215  and  _216
REMARK   90  A    between atoms: _219  and  _221
REMARK   91  A    between atoms: _221  and  _222
REMARK   92  A    between atoms: _221  and  _224
REMARK   93  A    between atoms: _224  and  _225
REMARK   94  A    between atoms: _225  and  _226
REMARK   95  A    between atoms: _228  and  _230
REMARK   96  A    between atoms: _230  and  _231
REMARK   97  A    between atoms: _230  and  _233
REMARK   98  A    between atoms: _233  and  _234
REMARK   99  A    between atoms: _237  and  _239
REMARK  100  A    between atoms: _239  and  _240
REMARK  101  A    between atoms: _239  and  _242
REMARK  102  A    between atoms: _242  and  _243
REMARK  103  A    between atoms: _246  and  _248
REMARK  104  A    between atoms: _248  and  _249
REMARK  105  A    between atoms: _248  and  _251
REMARK  106  A    between atoms: _251  and  _252
REMARK  107  A    between atoms: _252  and  _253
REMARK  108  A    between atoms: _258  and  _260
REMARK  109  A    between atoms: _260  and  _261
REMARK  110  A    between atoms: _260  and  _263
REMARK  111  A    between atoms: _263  and  _264
REMARK  112  A    between atoms: _267  and  _269
REMARK  113  A    between atoms: _269  and  _270
REMARK  114  A    between atoms: _269  and  _272
REMARK  115  A    between atoms: _272  and  _273
REMARK  116  A    between atoms: _275  and  _277
REMARK  117  A    between atoms: _277  and  _278
REMARK  118  A    between atoms: _281  and  _283
REMARK  119  A    between atoms: _283  and  _284
REMARK  120  A    between atoms: _287  and  _289
REMARK  121  A    between atoms: _289  and  _290
REMARK  122  A    between atoms: _289  and  _292
REMARK  123  A    between atoms: _292  and  _293
REMARK  124  A    between atoms: _293  and  _294
REMARK  125  A    between atoms: _294  and  _295
REMARK  126  A    between atoms: _304  and  _306
REMARK  127  A    between atoms: _306  and  _307
REMARK  128  A    between atoms: _310  and  _312
REMARK  129  A    between atoms: _312  and  _313
REMARK  130  A    between atoms: _312  and  _315
REMARK  131  A    between atoms: _315  and  _316
REMARK  132  A    between atoms: _321  and  _323
REMARK  133  A    between atoms: _323  and  _324
REMARK  134  A    between atoms: _323  and  _326
REMARK  135  A    between atoms: _326  and  _327
REMARK                            x       y       z     vdW  Elec       q    Type
REMARK                         _______ _______ _______ _____ _____    ______ ____
ROOT
ATOM      1  O   HOH     1       8.985  29.689  -0.033  0.00  0.00    +0.000 OA
ENDROOT
TORSDOF 0
REMARK  Name = ../refined-set-2016/1nli/1nli_pocket.pdb
REMARK  135 active torsions:
REMARK  status: ('A' for Active; 'I' for Inactive)
REMARK    1  A    between atoms: _1  and  _3
REMARK    2  A    between atoms: _3  and  _4
REMARK    3  A    between atoms: _3  and  _6
REMARK    4  A    between atoms: _9  and  _11
REMARK    5  A    between atoms: _11  and  _12
REMARK    6  A    between atoms: _15  and  _17
REMARK    7  A    between atoms: _17  and  _18
REMARK    8  A    between atoms: _17  and  _20
REMARK    9  A    between atoms: _20  and  _21
REMARK   10  A    between atoms: _24  and  _26
REMARK   11  A    between atoms: _26  and  _27
REMARK   12  A    between atoms: _26  and  _29
REMARK   13  A    between atoms: _29  and  _30
REMARK   14  A    between atoms: _33  and  _35
REMARK   15  A    between atoms: _35  and  _36
REMARK   16  A    between atoms: _35  and  _38
REMARK   17  A    between atoms: _38  and  _39
REMARK   18  A    between atoms: _44  and  _46
REMARK   19  A    between atoms: _46  and  _47
REMARK   20  A    between atoms: _46  and  _49
REMARK   21  A    between atoms: _52  and  _54
REMARK   22  A    between atoms: _54  and  _55
REMARK   23  A    between atoms: _54  and  _57
REMARK   24  A    between atoms: _57  and  _58
REMARK   25  A    between atoms: _63  and  _64
REMARK   26  A    between atoms: _66  and  _68
REMARK   27  A    between atoms: _68  and  _69
REMARK   28  A    between atoms: _68  and  _71
REMARK   29  A    between atoms: _71  and  _72
REMARK   30  A    between atoms: _75  and  _77
REMARK   31  A    between atoms: _77  and  _78
REMARK   32  A    between atoms: _77  and  _80
REMARK   33  A    between atoms: _80  and  _81
REMARK   34  A    between atoms: _81  and  _82
REMARK   35  A    between atoms: _84  and  _86
REMARK   36  A    between atoms: _86  and  _87
REMARK   37  A    between atoms: _89  and  _91
REMARK   38  A    between atoms: _91  and  _92
REMARK   39  A    between atoms: _91  and  _94
REMARK   40  A    between atoms: _94  and  _95
REMARK   41  A    between atoms: _101  and  _103
REMARK   42  A    between atoms: _103  and  _104
REMARK   43  A    between atoms: _103  and  _106
REMARK   44  A    between atoms: _106  and  _107
REMARK   45  A    between atoms: _107  and  _108
REMARK   46  A    between atoms: _111  and  _113
REMARK   47  A    between atoms: _113  and  _114
REMARK   48  A    between atoms: _113  and  _116
REMARK   49  A    between atoms: _116  and  _117
REMARK   50  A    between atoms: _119  and  _121
REMARK   51  A    between atoms: _121  and  _122
REMARK   52  A    between atoms: _121  and  _124
REMARK   53  A    between atoms: _124  and  _125
REMARK   54  A    between atoms: _127  and  _129
REMARK   55  A    between atoms: _129  and  _130
REMARK   56  A    between atoms: _132  and  _134
REMARK   57  A    between atoms: _134  and  _135
REMARK   58  A    between atoms: _134  and  _137
REMARK   59  A    between atoms: _137  and  _138
REMARK   60  A    between atoms: _143  and  _145
REMARK   61  A    between atoms: _145  and  _146
REMARK   62  A    between atoms: _145  and  _148
REMARK   63  A    between atoms: _148  and  _149
REMARK   64  A    between atoms: _154  and  _155
REMARK   65  A    between atoms: _157  and  _159
REMARK   66  A    between atoms: _159  and  _160
REMARK   67  A    between atoms: _159  and  _162
REMARK   68  A    between atoms: _162  and  _163
REMARK   69  A    between atoms: _163  and  _164
REMARK   70  A    between atoms: _167  and  _169
REMARK   71  A    between atoms: _169  and  _170
REMARK   72  A    between atoms: _169  and  _172
REMARK   73  A    between atoms: _172  and  _173
REMARK   74  A    between atoms: _173  and  _174
REMARK   75  A    between atoms: _174  and  _175
REMARK   76  A    between atoms: _184  and  _186
REMARK   77  A    between atoms: _186  and  _187
REMARK   78  A    between atoms: _186  and  _189
REMARK   79  A    between atoms: _189  and  _190
REMARK   80  A    between atoms: _193  and  _195
REMARK   81  A    between atoms: _195  and  _196
REMARK   82  A    between atoms: _195  and  _198
REMARK   83  A    between atoms: _198  and  _199
REMARK   84  A    between atoms: _199  and  _200
REMARK   85  A    between atoms: _200  and  _201
REMARK   86  A    between atoms: _210  and  _212
REMARK   87  A    between atoms: _212  and  _213
REMARK   88  A    between atoms: _212  and  _215
REMARK   89  A    between atoms: _215  and  _216
REMARK   90  A    between atoms: _219  and  _221
REMARK   91  A    between atoms: _221  and  _222
REMARK   92  A    between atoms: _221  and  _224
REMARK   93  A    between atoms: _224  and  _225
REMARK   94  A    between atoms: _225  and  _226
REMARK   95  A    between atoms: _228  and  _230
REMARK   96  A    between atoms: _230  and  _231
REMARK   97  A    between atoms: _230  and  _233
REMARK   98  A    between atoms: _233  and  _234
REMARK   99  A    between atoms: _237  and  _239
REMARK  100  A    between atoms: _239  and  _240
REMARK  101  A    between atoms: _239  and  _242
REMARK  102  A    between atoms: _242  and  _243
REMARK  103  A    between atoms: _246  and  _248
REMARK  104  A    between atoms: _248  and  _249
REMARK  105  A    between atoms: _248  and  _251
REMARK  106  A    between atoms: _251  and  _252
REMARK  107  A    between atoms: _252  and  _253
REMARK  108  A    between atoms: _258  and  _260
REMARK  109  A    between atoms: _260  and  _261
REMARK  110  A    between atoms: _260  and  _263
REMARK  111  A    between atoms: _263  and  _264
REMARK  112  A    between atoms: _267  and  _269
REMARK  113  A    between atoms: _269  and  _270
REMARK  114  A    between atoms: _269  and  _272
REMARK  115  A    between atoms: _272  and  _273
REMARK  116  A    between atoms: _275  and  _277
REMARK  117  A    between atoms: _277  and  _278
REMARK  118  A    between atoms: _281  and  _283
REMARK  119  A    between atoms: _283  and  _284
REMARK  120  A    between atoms: _287  and  _289
REMARK  121  A    between atoms: _289  and  _290
REMARK  122  A    between atoms: _289  and  _292
REMARK  123  A    between atoms: _292  and  _293
REMARK  124  A    between atoms: _293  and  _294
REMARK  125  A    between atoms: _294  and  _295
REMARK  126  A    between atoms: _304  and  _306
REMARK  127  A    between atoms: _306  and  _307
REMARK  128  A    between atoms: _310  and  _312
REMARK  129  A    between atoms: _312  and  _313
REMARK  130  A    between atoms: _312  and  _315
REMARK  131  A    between atoms: _315  and  _316
REMARK  132  A    between atoms: _321  and  _323
REMARK  133  A    between atoms: _323  and  _324
REMARK  134  A    between atoms: _323  and  _326
REMARK  135  A    between atoms: _326  and  _327
REMARK                            x       y       z     vdW  Elec       q    Type
REMARK                         _______ _______ _______ _____ _____    ______ ____
ROOT
ATOM      1  O   HOH     1       0.762  30.515  -0.237  0.00  0.00    +0.000 OA
ENDROOT
TORSDOF 0
REMARK  Name = ../refined-set-2016/1nli/1nli_pocket.pdb
REMARK  135 active torsions:
REMARK  status: ('A' for Active; 'I' for Inactive)
REMARK    1  A    between atoms: _1  and  _3
REMARK    2  A    between atoms: _3  and  _4
REMARK    3  A    between atoms: _3  and  _6
REMARK    4  A    between atoms: _9  and  _11
REMARK    5  A    between atoms: _11  and  _12
REMARK    6  A    between atoms: _15  and  _17
REMARK    7  A    between atoms: _17  and  _18
REMARK    8  A    between atoms: _17  and  _20
REMARK    9  A    between atoms: _20  and  _21
REMARK   10  A    between atoms: _24  and  _26
REMARK   11  A    between atoms: _26  and  _27
REMARK   12  A    between atoms: _26  and  _29
REMARK   13  A    between atoms: _29  and  _30
REMARK   14  A    between atoms: _33  and  _35
REMARK   15  A    between atoms: _35  and  _36
REMARK   16  A    between atoms: _35  and  _38
REMARK   17  A    between atoms: _38  and  _39
REMARK   18  A    between atoms: _44  and  _46
REMARK   19  A    between atoms: _46  and  _47
REMARK   20  A    between atoms: _46  and  _49
REMARK   21  A    between atoms: _52  and  _54
REMARK   22  A    between atoms: _54  and  _55
REMARK   23  A    between atoms: _54  and  _57
REMARK   24  A    between atoms: _57  and  _58
REMARK   25  A    between atoms: _63  and  _64
REMARK   26  A    between atoms: _66  and  _68
REMARK   27  A    between atoms: _68  and  _69
REMARK   28  A    between atoms: _68  and  _71
REMARK   29  A    between atoms: _71  and  _72
REMARK   30  A    between atoms: _75  and  _77
REMARK   31  A    between atoms: _77  and  _78
REMARK   32  A    between atoms: _77  and  _80
REMARK   33  A    between atoms: _80  and  _81
REMARK   34  A    between atoms: _81  and  _82
REMARK   35  A    between atoms: _84  and  _86
REMARK   36  A    between atoms: _86  and  _87
REMARK   37  A    between atoms: _89  and  _91
REMARK   38  A    between atoms: _91  and  _92
REMARK   39  A    between atoms: _91  and  _94
REMARK   40  A    between atoms: _94  and  _95
REMARK   41  A    between atoms: _101  and  _103
REMARK   42  A    between atoms: _103  and  _104
REMARK   43  A    between atoms: _103  and  _106
REMARK   44  A    between atoms: _106  and  _107
REMARK   45  A    between atoms: _107  and  _108
REMARK   46  A    between atoms: _111  and  _113
REMARK   47  A    between atoms: _113  and  _114
REMARK   48  A    between atoms: _113  and  _116
REMARK   49  A    between atoms: _116  and  _117
REMARK   50  A    between atoms: _119  and  _121
REMARK   51  A    between atoms: _121  and  _122
REMARK   52  A    between atoms: _121  and  _124
REMARK   53  A    between atoms: _124  and  _125
REMARK   54  A    between atoms: _127  and  _129
REMARK   55  A    between atoms: _129  and  _130
REMARK   56  A    between atoms: _132  and  _134
REMARK   57  A    between atoms: _134  and  _135
REMARK   58  A    between atoms: _134  and  _137
REMARK   59  A    between atoms: _137  and  _138
REMARK   60  A    between atoms: _143  and  _145
REMARK   61  A    between atoms: _145  and  _146
REMARK   62  A    between atoms: _145  and  _148
REMARK   63  A    between atoms: _148  and  _149
REMARK   64  A    between atoms: _154  and  _155
REMARK   65  A    between atoms: _157  and  _159
REMARK   66  A    between atoms: _159  and  _160
REMARK   67  A    between atoms: _159  and  _162
REMARK   68  A    between atoms: _162  and  _163
REMARK   69  A    between atoms: _163  and  _164
REMARK   70  A    between atoms: _167  and  _169
REMARK   71  A    between atoms: _169  and  _170
REMARK   72  A    between atoms: _169  and  _172
REMARK   73  A    between atoms: _172  and  _173
REMARK   74  A    between atoms: _173  and  _174
REMARK   75  A    between atoms: _174  and  _175
REMARK   76  A    between atoms: _184  and  _186
REMARK   77  A    between atoms: _186  and  _187
REMARK   78  A    between atoms: _186  and  _189
REMARK   79  A    between atoms: _189  and  _190
REMARK   80  A    between atoms: _193  and  _195
REMARK   81  A    between atoms: _195  and  _196
REMARK   82  A    between atoms: _195  and  _198
REMARK   83  A    between atoms: _198  and  _199
REMARK   84  A    between atoms: _199  and  _200
REMARK   85  A    between atoms: _200  and  _201
REMARK   86  A    between atoms: _210  and  _212
REMARK   87  A    between atoms: _212  and  _213
REMARK   88  A    between atoms: _212  and  _215
REMARK   89  A    between atoms: _215  and  _216
REMARK   90  A    between atoms: _219  and  _221
REMARK   91  A    between atoms: _221  and  _222
REMARK   92  A    between atoms: _221  and  _224
REMARK   93  A    between atoms: _224  and  _225
REMARK   94  A    between atoms: _225  and  _226
REMARK   95  A    between atoms: _228  and  _230
REMARK   96  A    between atoms: _230  and  _231
REMARK   97  A    between atoms: _230  and  _233
REMARK   98  A    between atoms: _233  and  _234
REMARK   99  A    between atoms: _237  and  _239
REMARK  100  A    between atoms: _239  and  _240
REMARK  101  A    between atoms: _239  and  _242
REMARK  102  A    between atoms: _242  and  _243
REMARK  103  A    between atoms: _246  and  _248
REMARK  104  A    between atoms: _248  and  _249
REMARK  105  A    between atoms: _248  and  _251
REMARK  106  A    between atoms: _251  and  _252
REMARK  107  A    between atoms: _252  and  _253
REMARK  108  A    between atoms: _258  and  _260
REMARK  109  A    between atoms: _260  and  _261
REMARK  110  A    between atoms: _260  and  _263
REMARK  111  A    between atoms: _263  and  _264
REMARK  112  A    between atoms: _267  and  _269
REMARK  113  A    between atoms: _269  and  _270
REMARK  114  A    between atoms: _269  and  _272
REMARK  115  A    between atoms: _272  and  _273
REMARK  116  A    between atoms: _275  and  _277
REMARK  117  A    between atoms: _277  and  _278
REMARK  118  A    between atoms: _281  and  _283
REMARK  119  A    between atoms: _283  and  _284
REMARK  120  A    between atoms: _287  and  _289
REMARK  121  A    between atoms: _289  and  _290
REMARK  122  A    between atoms: _289  and  _292
REMARK  123  A    between atoms: _292  and  _293
REMARK  124  A    between atoms: _293  and  _294
REMARK  125  A    between atoms: _294  and  _295
REMARK  126  A    between atoms: _304  and  _306
REMARK  127  A    between atoms: _306  and  _307
REMARK  128  A    between atoms: _310  and  _312
REMARK  129  A    between atoms: _312  and  _313
REMARK  130  A    between atoms: _312  and  _315
REMARK  131  A    between atoms: _315  and  _316
REMARK  132  A    between atoms: _321  and  _323
REMARK  133  A    between atoms: _323  and  _324
REMARK  134  A    between atoms: _323  and  _326
REMARK  135  A    between atoms: _326  and  _327
REMARK                            x       y       z     vdW  Elec       q    Type
REMARK                         _______ _______ _______ _____ _____    ______ ____
ROOT
ATOM      1  O   HOH     1       0.789  31.399   1.899  0.00  0.00    +0.000 OA
ENDROOT
TORSDOF 0
REMARK  Name = ../refined-set-2016/1nli/1nli_pocket.pdb
REMARK  135 active torsions:
REMARK  status: ('A' for Active; 'I' for Inactive)
REMARK    1  A    between atoms: _1  and  _3
REMARK    2  A    between atoms: _3  and  _4
REMARK    3  A    between atoms: _3  and  _6
REMARK    4  A    between atoms: _9  and  _11
REMARK    5  A    between atoms: _11  and  _12
REMARK    6  A    between atoms: _15  and  _17
REMARK    7  A    between atoms: _17  and  _18
REMARK    8  A    between atoms: _17  and  _20
REMARK    9  A    between atoms: _20  and  _21
REMARK   10  A    between atoms: _24  and  _26
REMARK   11  A    between atoms: _26  and  _27
REMARK   12  A    between atoms: _26  and  _29
REMARK   13  A    between atoms: _29  and  _30
REMARK   14  A    between atoms: _33  and  _35
REMARK   15  A    between atoms: _35  and  _36
REMARK   16  A    between atoms: _35  and  _38
REMARK   17  A    between atoms: _38  and  _39
REMARK   18  A    between atoms: _44  and  _46
REMARK   19  A    between atoms: _46  and  _47
REMARK   20  A    between atoms: _46  and  _49
REMARK   21  A    between atoms: _52  and  _54
REMARK   22  A    between atoms: _54  and  _55
REMARK   23  A    between atoms: _54  and  _57
REMARK   24  A    between atoms: _57  and  _58
REMARK   25  A    between atoms: _63  and  _64
REMARK   26  A    between atoms: _66  and  _68
REMARK   27  A    between atoms: _68  and  _69
REMARK   28  A    between atoms: _68  and  _71
REMARK   29  A    between atoms: _71  and  _72
REMARK   30  A    between atoms: _75  and  _77
REMARK   31  A    between atoms: _77  and  _78
REMARK   32  A    between atoms: _77  and  _80
REMARK   33  A    between atoms: _80  and  _81
REMARK   34  A    between atoms: _81  and  _82
REMARK   35  A    between atoms: _84  and  _86
REMARK   36  A    between atoms: _86  and  _87
REMARK   37  A    between atoms: _89  and  _91
REMARK   38  A    between atoms: _91  and  _92
REMARK   39  A    between atoms: _91  and  _94
REMARK   40  A    between atoms: _94  and  _95
REMARK   41  A    between atoms: _101  and  _103
REMARK   42  A    between atoms: _103  and  _104
REMARK   43  A    between atoms: _103  and  _106
REMARK   44  A    between atoms: _106  and  _107
REMARK   45  A    between atoms: _107  and  _108
REMARK   46  A    between atoms: _111  and  _113
REMARK   47  A    between atoms: _113  and  _114
REMARK   48  A    between atoms: _113  and  _116
REMARK   49  A    between atoms: _116  and  _117
REMARK   50  A    between atoms: _119  and  _121
REMARK   51  A    between atoms: _121  and  _122
REMARK   52  A    between atoms: _121  and  _124
REMARK   53  A    between atoms: _124  and  _125
REMARK   54  A    between atoms: _127  and  _129
REMARK   55  A    between atoms: _129  and  _130
REMARK   56  A    between atoms: _132  and  _134
REMARK   57  A    between atoms: _134  and  _135
REMARK   58  A    between atoms: _134  and  _137
REMARK   59  A    between atoms: _137  and  _138
REMARK   60  A    between atoms: _143  and  _145
REMARK   61  A    between atoms: _145  and  _146
REMARK   62  A    between atoms: _145  and  _148
REMARK   63  A    between atoms: _148  and  _149
REMARK   64  A    between atoms: _154  and  _155
REMARK   65  A    between atoms: _157  and  _159
REMARK   66  A    between atoms: _159  and  _160
REMARK   67  A    between atoms: _159  and  _162
REMARK   68  A    between atoms: _162  and  _163
REMARK   69  A    between atoms: _163  and  _164
REMARK   70  A    between atoms: _167  and  _169
REMARK   71  A    between atoms: _169  and  _170
REMARK   72  A    between atoms: _169  and  _172
REMARK   73  A    between atoms: _172  and  _173
REMARK   74  A    between atoms: _173  and  _174
REMARK   75  A    between atoms: _174  and  _175
REMARK   76  A    between atoms: _184  and  _186
REMARK   77  A    between atoms: _186  and  _187
REMARK   78  A    between atoms: _186  and  _189
REMARK   79  A    between atoms: _189  and  _190
REMARK   80  A    between atoms: _193  and  _195
REMARK   81  A    between atoms: _195  and  _196
REMARK   82  A    between atoms: _195  and  _198
REMARK   83  A    between atoms: _198  and  _199
REMARK   84  A    between atoms: _199  and  _200
REMARK   85  A    between atoms: _200  and  _201
REMARK   86  A    between atoms: _210  and  _212
REMARK   87  A    between atoms: _212  and  _213
REMARK   88  A    between atoms: _212  and  _215
REMARK   89  A    between atoms: _215  and  _216
REMARK   90  A    between atoms: _219  and  _221
REMARK   91  A    between atoms: _221  and  _222
REMARK   92  A    between atoms: _221  and  _224
REMARK   93  A    between atoms: _224  and  _225
REMARK   94  A    between atoms: _225  and  _226
REMARK   95  A    between atoms: _228  and  _230
REMARK   96  A    between atoms: _230  and  _231
REMARK   97  A    between atoms: _230  and  _233
REMARK   98  A    between atoms: _233  and  _234
REMARK   99  A    between atoms: _237  and  _239
REMARK  100  A    between atoms: _239  and  _240
REMARK  101  A    between atoms: _239  and  _242
REMARK  102  A    between atoms: _242  and  _243
REMARK  103  A    between atoms: _246  and  _248
REMARK  104  A    between atoms: _248  and  _249
REMARK  105  A    between atoms: _248  and  _251
REMARK  106  A    between atoms: _251  and  _252
REMARK  107  A    between atoms: _252  and  _253
REMARK  108  A    between atoms: _258  and  _260
REMARK  109  A    between atoms: _260  and  _261
REMARK  110  A    between atoms: _260  and  _263
REMARK  111  A    between atoms: _263  and  _264
REMARK  112  A    between atoms: _267  and  _269
REMARK  113  A    between atoms: _269  and  _270
REMARK  114  A    between atoms: _269  and  _272
REMARK  115  A    between atoms: _272  and  _273
REMARK  116  A    between atoms: _275  and  _277
REMARK  117  A    between atoms: _277  and  _278
REMARK  118  A    between atoms: _281  and  _283
REMARK  119  A    between atoms: _283  and  _284
REMARK  120  A    between atoms: _287  and  _289
REMARK  121  A    between atoms: _289  and  _290
REMARK  122  A    between atoms: _289  and  _292
REMARK  123  A    between atoms: _292  and  _293
REMARK  124  A    between atoms: _293  and  _294
REMARK  125  A    between atoms: _294  and  _295
REMARK  126  A    between atoms: _304  and  _306
REMARK  127  A    between atoms: _306  and  _307
REMARK  128  A    between atoms: _310  and  _312
REMARK  129  A    between atoms: _312  and  _313
REMARK  130  A    between atoms: _312  and  _315
REMARK  131  A    between atoms: _315  and  _316
REMARK  132  A    between atoms: _321  and  _323
REMARK  133  A    between atoms: _323  and  _324
REMARK  134  A    between atoms: _323  and  _326
REMARK  135  A    between atoms: _326  and  _327
REMARK                            x       y       z     vdW  Elec       q    Type
REMARK                         _______ _______ _______ _____ _____    ______ ____
ROOT
ATOM      1  O   HOH     1       1.049  38.106   2.518  0.00  0.00    +0.000 OA
ENDROOT
TORSDOF 0
REMARK  Name = ../refined-set-2016/1nli/1nli_pocket.pdb
REMARK  135 active torsions:
REMARK  status: ('A' for Active; 'I' for Inactive)
REMARK    1  A    between atoms: _1  and  _3
REMARK    2  A    between atoms: _3  and  _4
REMARK    3  A    between atoms: _3  and  _6
REMARK    4  A    between atoms: _9  and  _11
REMARK    5  A    between atoms: _11  and  _12
REMARK    6  A    between atoms: _15  and  _17
REMARK    7  A    between atoms: _17  and  _18
REMARK    8  A    between atoms: _17  and  _20
REMARK    9  A    between atoms: _20  and  _21
REMARK   10  A    between atoms: _24  and  _26
REMARK   11  A    between atoms: _26  and  _27
REMARK   12  A    between atoms: _26  and  _29
REMARK   13  A    between atoms: _29  and  _30
REMARK   14  A    between atoms: _33  and  _35
REMARK   15  A    between atoms: _35  and  _36
REMARK   16  A    between atoms: _35  and  _38
REMARK   17  A    between atoms: _38  and  _39
REMARK   18  A    between atoms: _44  and  _46
REMARK   19  A    between atoms: _46  and  _47
REMARK   20  A    between atoms: _46  and  _49
REMARK   21  A    between atoms: _52  and  _54
REMARK   22  A    between atoms: _54  and  _55
REMARK   23  A    between atoms: _54  and  _57
REMARK   24  A    between atoms: _57  and  _58
REMARK   25  A    between atoms: _63  and  _64
REMARK   26  A    between atoms: _66  and  _68
REMARK   27  A    between atoms: _68  and  _69
REMARK   28  A    between atoms: _68  and  _71
REMARK   29  A    between atoms: _71  and  _72
REMARK   30  A    between atoms: _75  and  _77
REMARK   31  A    between atoms: _77  and  _78
REMARK   32  A    between atoms: _77  and  _80
REMARK   33  A    between atoms: _80  and  _81
REMARK   34  A    between atoms: _81  and  _82
REMARK   35  A    between atoms: _84  and  _86
REMARK   36  A    between atoms: _86  and  _87
REMARK   37  A    between atoms: _89  and  _91
REMARK   38  A    between atoms: _91  and  _92
REMARK   39  A    between atoms: _91  and  _94
REMARK   40  A    between atoms: _94  and  _95
REMARK   41  A    between atoms: _101  and  _103
REMARK   42  A    between atoms: _103  and  _104
REMARK   43  A    between atoms: _103  and  _106
REMARK   44  A    between atoms: _106  and  _107
REMARK   45  A    between atoms: _107  and  _108
REMARK   46  A    between atoms: _111  and  _113
REMARK   47  A    between atoms: _113  and  _114
REMARK   48  A    between atoms: _113  and  _116
REMARK   49  A    between atoms: _116  and  _117
REMARK   50  A    between atoms: _119  and  _121
REMARK   51  A    between atoms: _121  and  _122
REMARK   52  A    between atoms: _121  and  _124
REMARK   53  A    between atoms: _124  and  _125
REMARK   54  A    between atoms: _127  and  _129
REMARK   55  A    between atoms: _129  and  _130
REMARK   56  A    between atoms: _132  and  _134
REMARK   57  A    between atoms: _134  and  _135
REMARK   58  A    between atoms: _134  and  _137
REMARK   59  A    between atoms: _137  and  _138
REMARK   60  A    between atoms: _143  and  _145
REMARK   61  A    between atoms: _145  and  _146
REMARK   62  A    between atoms: _145  and  _148
REMARK   63  A    between atoms: _148  and  _149
REMARK   64  A    between atoms: _154  and  _155
REMARK   65  A    between atoms: _157  and  _159
REMARK   66  A    between atoms: _159  and  _160
REMARK   67  A    between atoms: _159  and  _162
REMARK   68  A    between atoms: _162  and  _163
REMARK   69  A    between atoms: _163  and  _164
REMARK   70  A    between atoms: _167  and  _169
REMARK   71  A    between atoms: _169  and  _170
REMARK   72  A    between atoms: _169  and  _172
REMARK   73  A    between atoms: _172  and  _173
REMARK   74  A    between atoms: _173  and  _174
REMARK   75  A    between atoms: _174  and  _175
REMARK   76  A    between atoms: _184  and  _186
REMARK   77  A    between atoms: _186  and  _187
REMARK   78  A    between atoms: _186  and  _189
REMARK   79  A    between atoms: _189  and  _190
REMARK   80  A    between atoms: _193  and  _195
REMARK   81  A    between atoms: _195  and  _196
REMARK   82  A    between atoms: _195  and  _198
REMARK   83  A    between atoms: _198  and  _199
REMARK   84  A    between atoms: _199  and  _200
REMARK   85  A    between atoms: _200  and  _201
REMARK   86  A    between atoms: _210  and  _212
REMARK   87  A    between atoms: _212  and  _213
REMARK   88  A    between atoms: _212  and  _215
REMARK   89  A    between atoms: _215  and  _216
REMARK   90  A    between atoms: _219  and  _221
REMARK   91  A    between atoms: _221  and  _222
REMARK   92  A    between atoms: _221  and  _224
REMARK   93  A    between atoms: _224  and  _225
REMARK   94  A    between atoms: _225  and  _226
REMARK   95  A    between atoms: _228  and  _230
REMARK   96  A    between atoms: _230  and  _231
REMARK   97  A    between atoms: _230  and  _233
REMARK   98  A    between atoms: _233  and  _234
REMARK   99  A    between atoms: _237  and  _239
REMARK  100  A    between atoms: _239  and  _240
REMARK  101  A    between atoms: _239  and  _242
REMARK  102  A    between atoms: _242  and  _243
REMARK  103  A    between atoms: _246  and  _248
REMARK  104  A    between atoms: _248  and  _249
REMARK  105  A    between atoms: _248  and  _251
REMARK  106  A    between atoms: _251  and  _252
REMARK  107  A    between atoms: _252  and  _253
REMARK  108  A    between atoms: _258  and  _260
REMARK  109  A    between atoms: _260  and  _261
REMARK  110  A    between atoms: _260  and  _263
REMARK  111  A    between atoms: _263  and  _264
REMARK  112  A    between atoms: _267  and  _269
REMARK  113  A    between atoms: _269  and  _270
REMARK  114  A    between atoms: _269  and  _272
REMARK  115  A    between atoms: _272  and  _273
REMARK  116  A    between atoms: _275  and  _277
REMARK  117  A    between atoms: _277  and  _278
REMARK  118  A    between atoms: _281  and  _283
REMARK  119  A    between atoms: _283  and  _284
REMARK  120  A    between atoms: _287  and  _289
REMARK  121  A    between atoms: _289  and  _290
REMARK  122  A    between atoms: _289  and  _292
REMARK  123  A    between atoms: _292  and  _293
REMARK  124  A    between atoms: _293  and  _294
REMARK  125  A    between atoms: _294  and  _295
REMARK  126  A    between atoms: _304  and  _306
REMARK  127  A    between atoms: _306  and  _307
REMARK  128  A    between atoms: _310  and  _312
REMARK  129  A    between atoms: _312  and  _313
REMARK  130  A    between atoms: _312  and  _315
REMARK  131  A    between atoms: _315  and  _316
REMARK  132  A    between atoms: _321  and  _323
REMARK  133  A    between atoms: _323  and  _324
REMARK  134  A    between atoms: _323  and  _326
REMARK  135  A    between atoms: _326  and  _327
REMARK                            x       y       z     vdW  Elec       q    Type
REMARK                         _______ _______ _______ _____ _____    ______ ____
ROOT
ATOM      1  O   HOH     1       4.850  26.749   3.484  0.00  0.00    +0.000 OA
ENDROOT
TORSDOF 0
REMARK  Name = ../refined-set-2016/1nli/1nli_pocket.pdb
REMARK  135 active torsions:
REMARK  status: ('A' for Active; 'I' for Inactive)
REMARK    1  A    between atoms: _1  and  _3
REMARK    2  A    between atoms: _3  and  _4
REMARK    3  A    between atoms: _3  and  _6
REMARK    4  A    between atoms: _9  and  _11
REMARK    5  A    between atoms: _11  and  _12
REMARK    6  A    between atoms: _15  and  _17
REMARK    7  A    between atoms: _17  and  _18
REMARK    8  A    between atoms: _17  and  _20
REMARK    9  A    between atoms: _20  and  _21
REMARK   10  A    between atoms: _24  and  _26
REMARK   11  A    between atoms: _26  and  _27
REMARK   12  A    between atoms: _26  and  _29
REMARK   13  A    between atoms: _29  and  _30
REMARK   14  A    between atoms: _33  and  _35
REMARK   15  A    between atoms: _35  and  _36
REMARK   16  A    between atoms: _35  and  _38
REMARK   17  A    between atoms: _38  and  _39
REMARK   18  A    between atoms: _44  and  _46
REMARK   19  A    between atoms: _46  and  _47
REMARK   20  A    between atoms: _46  and  _49
REMARK   21  A    between atoms: _52  and  _54
REMARK   22  A    between atoms: _54  and  _55
REMARK   23  A    between atoms: _54  and  _57
REMARK   24  A    between atoms: _57  and  _58
REMARK   25  A    between atoms: _63  and  _64
REMARK   26  A    between atoms: _66  and  _68
REMARK   27  A    between atoms: _68  and  _69
REMARK   28  A    between atoms: _68  and  _71
REMARK   29  A    between atoms: _71  and  _72
REMARK   30  A    between atoms: _75  and  _77
REMARK   31  A    between atoms: _77  and  _78
REMARK   32  A    between atoms: _77  and  _80
REMARK   33  A    between atoms: _80  and  _81
REMARK   34  A    between atoms: _81  and  _82
REMARK   35  A    between atoms: _84  and  _86
REMARK   36  A    between atoms: _86  and  _87
REMARK   37  A    between atoms: _89  and  _91
REMARK   38  A    between atoms: _91  and  _92
REMARK   39  A    between atoms: _91  and  _94
REMARK   40  A    between atoms: _94  and  _95
REMARK   41  A    between atoms: _101  and  _103
REMARK   42  A    between atoms: _103  and  _104
REMARK   43  A    between atoms: _103  and  _106
REMARK   44  A    between atoms: _106  and  _107
REMARK   45  A    between atoms: _107  and  _108
REMARK   46  A    between atoms: _111  and  _113
REMARK   47  A    between atoms: _113  and  _114
REMARK   48  A    between atoms: _113  and  _116
REMARK   49  A    between atoms: _116  and  _117
REMARK   50  A    between atoms: _119  and  _121
REMARK   51  A    between atoms: _121  and  _122
REMARK   52  A    between atoms: _121  and  _124
REMARK   53  A    between atoms: _124  and  _125
REMARK   54  A    between atoms: _127  and  _129
REMARK   55  A    between atoms: _129  and  _130
REMARK   56  A    between atoms: _132  and  _134
REMARK   57  A    between atoms: _134  and  _135
REMARK   58  A    between atoms: _134  and  _137
REMARK   59  A    between atoms: _137  and  _138
REMARK   60  A    between atoms: _143  and  _145
REMARK   61  A    between atoms: _145  and  _146
REMARK   62  A    between atoms: _145  and  _148
REMARK   63  A    between atoms: _148  and  _149
REMARK   64  A    between atoms: _154  and  _155
REMARK   65  A    between atoms: _157  and  _159
REMARK   66  A    between atoms: _159  and  _160
REMARK   67  A    between atoms: _159  and  _162
REMARK   68  A    between atoms: _162  and  _163
REMARK   69  A    between atoms: _163  and  _164
REMARK   70  A    between atoms: _167  and  _169
REMARK   71  A    between atoms: _169  and  _170
REMARK   72  A    between atoms: _169  and  _172
REMARK   73  A    between atoms: _172  and  _173
REMARK   74  A    between atoms: _173  and  _174
REMARK   75  A    between atoms: _174  and  _175
REMARK   76  A    between atoms: _184  and  _186
REMARK   77  A    between atoms: _186  and  _187
REMARK   78  A    between atoms: _186  and  _189
REMARK   79  A    between atoms: _189  and  _190
REMARK   80  A    between atoms: _193  and  _195
REMARK   81  A    between atoms: _195  and  _196
REMARK   82  A    between atoms: _195  and  _198
REMARK   83  A    between atoms: _198  and  _199
REMARK   84  A    between atoms: _199  and  _200
REMARK   85  A    between atoms: _200  and  _201
REMARK   86  A    between atoms: _210  and  _212
REMARK   87  A    between atoms: _212  and  _213
REMARK   88  A    between atoms: _212  and  _215
REMARK   89  A    between atoms: _215  and  _216
REMARK   90  A    between atoms: _219  and  _221
REMARK   91  A    between atoms: _221  and  _222
REMARK   92  A    between atoms: _221  and  _224
REMARK   93  A    between atoms: _224  and  _225
REMARK   94  A    between atoms: _225  and  _226
REMARK   95  A    between atoms: _228  and  _230
REMARK   96  A    between atoms: _230  and  _231
REMARK   97  A    between atoms: _230  and  _233
REMARK   98  A    between atoms: _233  and  _234
REMARK   99  A    between atoms: _237  and  _239
REMARK  100  A    between atoms: _239  and  _240
REMARK  101  A    between atoms: _239  and  _242
REMARK  102  A    between atoms: _242  and  _243
REMARK  103  A    between atoms: _246  and  _248
REMARK  104  A    between atoms: _248  and  _249
REMARK  105  A    between atoms: _248  and  _251
REMARK  106  A    between atoms: _251  and  _252
REMARK  107  A    between atoms: _252  and  _253
REMARK  108  A    between atoms: _258  and  _260
REMARK  109  A    between atoms: _260  and  _261
REMARK  110  A    between atoms: _260  and  _263
REMARK  111  A    between atoms: _263  and  _264
REMARK  112  A    between atoms: _267  and  _269
REMARK  113  A    between atoms: _269  and  _270
REMARK  114  A    between atoms: _269  and  _272
REMARK  115  A    between atoms: _272  and  _273
REMARK  116  A    between atoms: _275  and  _277
REMARK  117  A    between atoms: _277  and  _278
REMARK  118  A    between atoms: _281  and  _283
REMARK  119  A    between atoms: _283  and  _284
REMARK  120  A    between atoms: _287  and  _289
REMARK  121  A    between atoms: _289  and  _290
REMARK  122  A    between atoms: _289  and  _292
REMARK  123  A    between atoms: _292  and  _293
REMARK  124  A    between atoms: _293  and  _294
REMARK  125  A    between atoms: _294  and  _295
REMARK  126  A    between atoms: _304  and  _306
REMARK  127  A    between atoms: _306  and  _307
REMARK  128  A    between atoms: _310  and  _312
REMARK  129  A    between atoms: _312  and  _313
REMARK  130  A    between atoms: _312  and  _315
REMARK  131  A    between atoms: _315  and  _316
REMARK  132  A    between atoms: _321  and  _323
REMARK  133  A    between atoms: _323  and  _324
REMARK  134  A    between atoms: _323  and  _326
REMARK  135  A    between atoms: _326  and  _327
REMARK                            x       y       z     vdW  Elec       q    Type
REMARK                         _______ _______ _______ _____ _____    ______ ____
ROOT
ATOM      1  O   HOH     1       2.751  28.564  -0.227  0.00  0.00    +0.000 OA
ENDROOT
TORSDOF 0
REMARK  Name = ../refined-set-2016/1nli/1nli_pocket.pdb
REMARK  135 active torsions:
REMARK  status: ('A' for Active; 'I' for Inactive)
REMARK    1  A    between atoms: _1  and  _3
REMARK    2  A    between atoms: _3  and  _4
REMARK    3  A    between atoms: _3  and  _6
REMARK    4  A    between atoms: _9  and  _11
REMARK    5  A    between atoms: _11  and  _12
REMARK    6  A    between atoms: _15  and  _17
REMARK    7  A    between atoms: _17  and  _18
REMARK    8  A    between atoms: _17  and  _20
REMARK    9  A    between atoms: _20  and  _21
REMARK   10  A    between atoms: _24  and  _26
REMARK   11  A    between atoms: _26  and  _27
REMARK   12  A    between atoms: _26  and  _29
REMARK   13  A    between atoms: _29  and  _30
REMARK   14  A    between atoms: _33  and  _35
REMARK   15  A    between atoms: _35  and  _36
REMARK   16  A    between atoms: _35  and  _38
REMARK   17  A    between atoms: _38  and  _39
REMARK   18  A    between atoms: _44  and  _46
REMARK   19  A    between atoms: _46  and  _47
REMARK   20  A    between atoms: _46  and  _49
REMARK   21  A    between atoms: _52  and  _54
REMARK   22  A    between atoms: _54  and  _55
REMARK   23  A    between atoms: _54  and  _57
REMARK   24  A    between atoms: _57  and  _58
REMARK   25  A    between atoms: _63  and  _64
REMARK   26  A    between atoms: _66  and  _68
REMARK   27  A    between atoms: _68  and  _69
REMARK   28  A    between atoms: _68  and  _71
REMARK   29  A    between atoms: _71  and  _72
REMARK   30  A    between atoms: _75  and  _77
REMARK   31  A    between atoms: _77  and  _78
REMARK   32  A    between atoms: _77  and  _80
REMARK   33  A    between atoms: _80  and  _81
REMARK   34  A    between atoms: _81  and  _82
REMARK   35  A    between atoms: _84  and  _86
REMARK   36  A    between atoms: _86  and  _87
REMARK   37  A    between atoms: _89  and  _91
REMARK   38  A    between atoms: _91  and  _92
REMARK   39  A    between atoms: _91  and  _94
REMARK   40  A    between atoms: _94  and  _95
REMARK   41  A    between atoms: _101  and  _103
REMARK   42  A    between atoms: _103  and  _104
REMARK   43  A    between atoms: _103  and  _106
REMARK   44  A    between atoms: _106  and  _107
REMARK   45  A    between atoms: _107  and  _108
REMARK   46  A    between atoms: _111  and  _113
REMARK   47  A    between atoms: _113  and  _114
REMARK   48  A    between atoms: _113  and  _116
REMARK   49  A    between atoms: _116  and  _117
REMARK   50  A    between atoms: _119  and  _121
REMARK   51  A    between atoms: _121  and  _122
REMARK   52  A    between atoms: _121  and  _124
REMARK   53  A    between atoms: _124  and  _125
REMARK   54  A    between atoms: _127  and  _129
REMARK   55  A    between atoms: _129  and  _130
REMARK   56  A    between atoms: _132  and  _134
REMARK   57  A    between atoms: _134  and  _135
REMARK   58  A    between atoms: _134  and  _137
REMARK   59  A    between atoms: _137  and  _138
REMARK   60  A    between atoms: _143  and  _145
REMARK   61  A    between atoms: _145  and  _146
REMARK   62  A    between atoms: _145  and  _148
REMARK   63  A    between atoms: _148  and  _149
REMARK   64  A    between atoms: _154  and  _155
REMARK   65  A    between atoms: _157  and  _159
REMARK   66  A    between atoms: _159  and  _160
REMARK   67  A    between atoms: _159  and  _162
REMARK   68  A    between atoms: _162  and  _163
REMARK   69  A    between atoms: _163  and  _164
REMARK   70  A    between atoms: _167  and  _169
REMARK   71  A    between atoms: _169  and  _170
REMARK   72  A    between atoms: _169  and  _172
REMARK   73  A    between atoms: _172  and  _173
REMARK   74  A    between atoms: _173  and  _174
REMARK   75  A    between atoms: _174  and  _175
REMARK   76  A    between atoms: _184  and  _186
REMARK   77  A    between atoms: _186  and  _187
REMARK   78  A    between atoms: _186  and  _189
REMARK   79  A    between atoms: _189  and  _190
REMARK   80  A    between atoms: _193  and  _195
REMARK   81  A    between atoms: _195  and  _196
REMARK   82  A    between atoms: _195  and  _198
REMARK   83  A    between atoms: _198  and  _199
REMARK   84  A    between atoms: _199  and  _200
REMARK   85  A    between atoms: _200  and  _201
REMARK   86  A    between atoms: _210  and  _212
REMARK   87  A    between atoms: _212  and  _213
REMARK   88  A    between atoms: _212  and  _215
REMARK   89  A    between atoms: _215  and  _216
REMARK   90  A    between atoms: _219  and  _221
REMARK   91  A    between atoms: _221  and  _222
REMARK   92  A    between atoms: _221  and  _224
REMARK   93  A    between atoms: _224  and  _225
REMARK   94  A    between atoms: _225  and  _226
REMARK   95  A    between atoms: _228  and  _230
REMARK   96  A    between atoms: _230  and  _231
REMARK   97  A    between atoms: _230  and  _233
REMARK   98  A    between atoms: _233  and  _234
REMARK   99  A    between atoms: _237  and  _239
REMARK  100  A    between atoms: _239  and  _240
REMARK  101  A    between atoms: _239  and  _242
REMARK  102  A    between atoms: _242  and  _243
REMARK  103  A    between atoms: _246  and  _248
REMARK  104  A    between atoms: _248  and  _249
REMARK  105  A    between atoms: _248  and  _251
REMARK  106  A    between atoms: _251  and  _252
REMARK  107  A    between atoms: _252  and  _253
REMARK  108  A    between atoms: _258  and  _260
REMARK  109  A    between atoms: _260  and  _261
REMARK  110  A    between atoms: _260  and  _263
REMARK  111  A    between atoms: _263  and  _264
REMARK  112  A    between atoms: _267  and  _269
REMARK  113  A    between atoms: _269  and  _270
REMARK  114  A    between atoms: _269  and  _272
REMARK  115  A    between atoms: _272  and  _273
REMARK  116  A    between atoms: _275  and  _277
REMARK  117  A    between atoms: _277  and  _278
REMARK  118  A    between atoms: _281  and  _283
REMARK  119  A    between atoms: _283  and  _284
REMARK  120  A    between atoms: _287  and  _289
REMARK  121  A    between atoms: _289  and  _290
REMARK  122  A    between atoms: _289  and  _292
REMARK  123  A    between atoms: _292  and  _293
REMARK  124  A    between atoms: _293  and  _294
REMARK  125  A    between atoms: _294  and  _295
REMARK  126  A    between atoms: _304  and  _306
REMARK  127  A    between atoms: _306  and  _307
REMARK  128  A    between atoms: _310  and  _312
REMARK  129  A    between atoms: _312  and  _313
REMARK  130  A    between atoms: _312  and  _315
REMARK  131  A    between atoms: _315  and  _316
REMARK  132  A    between atoms: _321  and  _323
REMARK  133  A    between atoms: _323  and  _324
REMARK  134  A    between atoms: _323  and  _326
REMARK  135  A    between atoms: _326  and  _327
REMARK                            x       y       z     vdW  Elec       q    Type
REMARK                         _______ _______ _______ _____ _____    ______ ____
ROOT
ATOM      1  O   HOH     1       7.443  28.561  -5.608  0.00  0.00    +0.000 OA
ENDROOT
TORSDOF 0
REMARK  Name = ../refined-set-2016/1nli/1nli_pocket.pdb
REMARK  135 active torsions:
REMARK  status: ('A' for Active; 'I' for Inactive)
REMARK    1  A    between atoms: _1  and  _3
REMARK    2  A    between atoms: _3  and  _4
REMARK    3  A    between atoms: _3  and  _6
REMARK    4  A    between atoms: _9  and  _11
REMARK    5  A    between atoms: _11  and  _12
REMARK    6  A    between atoms: _15  and  _17
REMARK    7  A    between atoms: _17  and  _18
REMARK    8  A    between atoms: _17  and  _20
REMARK    9  A    between atoms: _20  and  _21
REMARK   10  A    between atoms: _24  and  _26
REMARK   11  A    between atoms: _26  and  _27
REMARK   12  A    between atoms: _26  and  _29
REMARK   13  A    between atoms: _29  and  _30
REMARK   14  A    between atoms: _33  and  _35
REMARK   15  A    between atoms: _35  and  _36
REMARK   16  A    between atoms: _35  and  _38
REMARK   17  A    between atoms: _38  and  _39
REMARK   18  A    between atoms: _44  and  _46
REMARK   19  A    between atoms: _46  and  _47
REMARK   20  A    between atoms: _46  and  _49
REMARK   21  A    between atoms: _52  and  _54
REMARK   22  A    between atoms: _54  and  _55
REMARK   23  A    between atoms: _54  and  _57
REMARK   24  A    between atoms: _57  and  _58
REMARK   25  A    between atoms: _63  and  _64
REMARK   26  A    between atoms: _66  and  _68
REMARK   27  A    between atoms: _68  and  _69
REMARK   28  A    between atoms: _68  and  _71
REMARK   29  A    between atoms: _71  and  _72
REMARK   30  A    between atoms: _75  and  _77
REMARK   31  A    between atoms: _77  and  _78
REMARK   32  A    between atoms: _77  and  _80
REMARK   33  A    between atoms: _80  and  _81
REMARK   34  A    between atoms: _81  and  _82
REMARK   35  A    between atoms: _84  and  _86
REMARK   36  A    between atoms: _86  and  _87
REMARK   37  A    between atoms: _89  and  _91
REMARK   38  A    between atoms: _91  and  _92
REMARK   39  A    between atoms: _91  and  _94
REMARK   40  A    between atoms: _94  and  _95
REMARK   41  A    between atoms: _101  and  _103
REMARK   42  A    between atoms: _103  and  _104
REMARK   43  A    between atoms: _103  and  _106
REMARK   44  A    between atoms: _106  and  _107
REMARK   45  A    between atoms: _107  and  _108
REMARK   46  A    between atoms: _111  and  _113
REMARK   47  A    between atoms: _113  and  _114
REMARK   48  A    between atoms: _113  and  _116
REMARK   49  A    between atoms: _116  and  _117
REMARK   50  A    between atoms: _119  and  _121
REMARK   51  A    between atoms: _121  and  _122
REMARK   52  A    between atoms: _121  and  _124
REMARK   53  A    between atoms: _124  and  _125
REMARK   54  A    between atoms: _127  and  _129
REMARK   55  A    between atoms: _129  and  _130
REMARK   56  A    between atoms: _132  and  _134
REMARK   57  A    between atoms: _134  and  _135
REMARK   58  A    between atoms: _134  and  _137
REMARK   59  A    between atoms: _137  and  _138
REMARK   60  A    between atoms: _143  and  _145
REMARK   61  A    between atoms: _145  and  _146
REMARK   62  A    between atoms: _145  and  _148
REMARK   63  A    between atoms: _148  and  _149
REMARK   64  A    between atoms: _154  and  _155
REMARK   65  A    between atoms: _157  and  _159
REMARK   66  A    between atoms: _159  and  _160
REMARK   67  A    between atoms: _159  and  _162
REMARK   68  A    between atoms: _162  and  _163
REMARK   69  A    between atoms: _163  and  _164
REMARK   70  A    between atoms: _167  and  _169
REMARK   71  A    between atoms: _169  and  _170
REMARK   72  A    between atoms: _169  and  _172
REMARK   73  A    between atoms: _172  and  _173
REMARK   74  A    between atoms: _173  and  _174
REMARK   75  A    between atoms: _174  and  _175
REMARK   76  A    between atoms: _184  and  _186
REMARK   77  A    between atoms: _186  and  _187
REMARK   78  A    between atoms: _186  and  _189
REMARK   79  A    between atoms: _189  and  _190
REMARK   80  A    between atoms: _193  and  _195
REMARK   81  A    between atoms: _195  and  _196
REMARK   82  A    between atoms: _195  and  _198
REMARK   83  A    between atoms: _198  and  _199
REMARK   84  A    between atoms: _199  and  _200
REMARK   85  A    between atoms: _200  and  _201
REMARK   86  A    between atoms: _210  and  _212
REMARK   87  A    between atoms: _212  and  _213
REMARK   88  A    between atoms: _212  and  _215
REMARK   89  A    between atoms: _215  and  _216
REMARK   90  A    between atoms: _219  and  _221
REMARK   91  A    between atoms: _221  and  _222
REMARK   92  A    between atoms: _221  and  _224
REMARK   93  A    between atoms: _224  and  _225
REMARK   94  A    between atoms: _225  and  _226
REMARK   95  A    between atoms: _228  and  _230
REMARK   96  A    between atoms: _230  and  _231
REMARK   97  A    between atoms: _230  and  _233
REMARK   98  A    between atoms: _233  and  _234
REMARK   99  A    between atoms: _237  and  _239
REMARK  100  A    between atoms: _239  and  _240
REMARK  101  A    between atoms: _239  and  _242
REMARK  102  A    between atoms: _242  and  _243
REMARK  103  A    between atoms: _246  and  _248
REMARK  104  A    between atoms: _248  and  _249
REMARK  105  A    between atoms: _248  and  _251
REMARK  106  A    between atoms: _251  and  _252
REMARK  107  A    between atoms: _252  and  _253
REMARK  108  A    between atoms: _258  and  _260
REMARK  109  A    between atoms: _260  and  _261
REMARK  110  A    between atoms: _260  and  _263
REMARK  111  A    between atoms: _263  and  _264
REMARK  112  A    between atoms: _267  and  _269
REMARK  113  A    between atoms: _269  and  _270
REMARK  114  A    between atoms: _269  and  _272
REMARK  115  A    between atoms: _272  and  _273
REMARK  116  A    between atoms: _275  and  _277
REMARK  117  A    between atoms: _277  and  _278
REMARK  118  A    between atoms: _281  and  _283
REMARK  119  A    between atoms: _283  and  _284
REMARK  120  A    between atoms: _287  and  _289
REMARK  121  A    between atoms: _289  and  _290
REMARK  122  A    between atoms: _289  and  _292
REMARK  123  A    between atoms: _292  and  _293
REMARK  124  A    between atoms: _293  and  _294
REMARK  125  A    between atoms: _294  and  _295
REMARK  126  A    between atoms: _304  and  _306
REMARK  127  A    between atoms: _306  and  _307
REMARK  128  A    between atoms: _310  and  _312
REMARK  129  A    between atoms: _312  and  _313
REMARK  130  A    between atoms: _312  and  _315
REMARK  131  A    between atoms: _315  and  _316
REMARK  132  A    between atoms: _321  and  _323
REMARK  133  A    between atoms: _323  and  _324
REMARK  134  A    between atoms: _323  and  _326
REMARK  135  A    between atoms: _326  and  _327
REMARK                            x       y       z     vdW  Elec       q    Type
REMARK                         _______ _______ _______ _____ _____    ______ ____
ROOT
ATOM      1  O   HOH     1       7.063  29.178   1.417  0.00  0.00    +0.000 OA
ENDROOT
TORSDOF 0
REMARK  Name = ../refined-set-2016/1nli/1nli_pocket.pdb
REMARK  135 active torsions:
REMARK  status: ('A' for Active; 'I' for Inactive)
REMARK    1  A    between atoms: _1  and  _3
REMARK    2  A    between atoms: _3  and  _4
REMARK    3  A    between atoms: _3  and  _6
REMARK    4  A    between atoms: _9  and  _11
REMARK    5  A    between atoms: _11  and  _12
REMARK    6  A    between atoms: _15  and  _17
REMARK    7  A    between atoms: _17  and  _18
REMARK    8  A    between atoms: _17  and  _20
REMARK    9  A    between atoms: _20  and  _21
REMARK   10  A    between atoms: _24  and  _26
REMARK   11  A    between atoms: _26  and  _27
REMARK   12  A    between atoms: _26  and  _29
REMARK   13  A    between atoms: _29  and  _30
REMARK   14  A    between atoms: _33  and  _35
REMARK   15  A    between atoms: _35  and  _36
REMARK   16  A    between atoms: _35  and  _38
REMARK   17  A    between atoms: _38  and  _39
REMARK   18  A    between atoms: _44  and  _46
REMARK   19  A    between atoms: _46  and  _47
REMARK   20  A    between atoms: _46  and  _49
REMARK   21  A    between atoms: _52  and  _54
REMARK   22  A    between atoms: _54  and  _55
REMARK   23  A    between atoms: _54  and  _57
REMARK   24  A    between atoms: _57  and  _58
REMARK   25  A    between atoms: _63  and  _64
REMARK   26  A    between atoms: _66  and  _68
REMARK   27  A    between atoms: _68  and  _69
REMARK   28  A    between atoms: _68  and  _71
REMARK   29  A    between atoms: _71  and  _72
REMARK   30  A    between atoms: _75  and  _77
REMARK   31  A    between atoms: _77  and  _78
REMARK   32  A    between atoms: _77  and  _80
REMARK   33  A    between atoms: _80  and  _81
REMARK   34  A    between atoms: _81  and  _82
REMARK   35  A    between atoms: _84  and  _86
REMARK   36  A    between atoms: _86  and  _87
REMARK   37  A    between atoms: _89  and  _91
REMARK   38  A    between atoms: _91  and  _92
REMARK   39  A    between atoms: _91  and  _94
REMARK   40  A    between atoms: _94  and  _95
REMARK   41  A    between atoms: _101  and  _103
REMARK   42  A    between atoms: _103  and  _104
REMARK   43  A    between atoms: _103  and  _106
REMARK   44  A    between atoms: _106  and  _107
REMARK   45  A    between atoms: _107  and  _108
REMARK   46  A    between atoms: _111  and  _113
REMARK   47  A    between atoms: _113  and  _114
REMARK   48  A    between atoms: _113  and  _116
REMARK   49  A    between atoms: _116  and  _117
REMARK   50  A    between atoms: _119  and  _121
REMARK   51  A    between atoms: _121  and  _122
REMARK   52  A    between atoms: _121  and  _124
REMARK   53  A    between atoms: _124  and  _125
REMARK   54  A    between atoms: _127  and  _129
REMARK   55  A    between atoms: _129  and  _130
REMARK   56  A    between atoms: _132  and  _134
REMARK   57  A    between atoms: _134  and  _135
REMARK   58  A    between atoms: _134  and  _137
REMARK   59  A    between atoms: _137  and  _138
REMARK   60  A    between atoms: _143  and  _145
REMARK   61  A    between atoms: _145  and  _146
REMARK   62  A    between atoms: _145  and  _148
REMARK   63  A    between atoms: _148  and  _149
REMARK   64  A    between atoms: _154  and  _155
REMARK   65  A    between atoms: _157  and  _159
REMARK   66  A    between atoms: _159  and  _160
REMARK   67  A    between atoms: _159  and  _162
REMARK   68  A    between atoms: _162  and  _163
REMARK   69  A    between atoms: _163  and  _164
REMARK   70  A    between atoms: _167  and  _169
REMARK   71  A    between atoms: _169  and  _170
REMARK   72  A    between atoms: _169  and  _172
REMARK   73  A    between atoms: _172  and  _173
REMARK   74  A    between atoms: _173  and  _174
REMARK   75  A    between atoms: _174  and  _175
REMARK   76  A    between atoms: _184  and  _186
REMARK   77  A    between atoms: _186  and  _187
REMARK   78  A    between atoms: _186  and  _189
REMARK   79  A    between atoms: _189  and  _190
REMARK   80  A    between atoms: _193  and  _195
REMARK   81  A    between atoms: _195  and  _196
REMARK   82  A    between atoms: _195  and  _198
REMARK   83  A    between atoms: _198  and  _199
REMARK   84  A    between atoms: _199  and  _200
REMARK   85  A    between atoms: _200  and  _201
REMARK   86  A    between atoms: _210  and  _212
REMARK   87  A    between atoms: _212  and  _213
REMARK   88  A    between atoms: _212  and  _215
REMARK   89  A    between atoms: _215  and  _216
REMARK   90  A    between atoms: _219  and  _221
REMARK   91  A    between atoms: _221  and  _222
REMARK   92  A    between atoms: _221  and  _224
REMARK   93  A    between atoms: _224  and  _225
REMARK   94  A    between atoms: _225  and  _226
REMARK   95  A    between atoms: _228  and  _230
REMARK   96  A    between atoms: _230  and  _231
REMARK   97  A    between atoms: _230  and  _233
REMARK   98  A    between atoms: _233  and  _234
REMARK   99  A    between atoms: _237  and  _239
REMARK  100  A    between atoms: _239  and  _240
REMARK  101  A    between atoms: _239  and  _242
REMARK  102  A    between atoms: _242  and  _243
REMARK  103  A    between atoms: _246  and  _248
REMARK  104  A    between atoms: _248  and  _249
REMARK  105  A    between atoms: _248  and  _251
REMARK  106  A    between atoms: _251  and  _252
REMARK  107  A    between atoms: _252  and  _253
REMARK  108  A    between atoms: _258  and  _260
REMARK  109  A    between atoms: _260  and  _261
REMARK  110  A    between atoms: _260  and  _263
REMARK  111  A    between atoms: _263  and  _264
REMARK  112  A    between atoms: _267  and  _269
REMARK  113  A    between atoms: _269  and  _270
REMARK  114  A    between atoms: _269  and  _272
REMARK  115  A    between atoms: _272  and  _273
REMARK  116  A    between atoms: _275  and  _277
REMARK  117  A    between atoms: _277  and  _278
REMARK  118  A    between atoms: _281  and  _283
REMARK  119  A    between atoms: _283  and  _284
REMARK  120  A    between atoms: _287  and  _289
REMARK  121  A    between atoms: _289  and  _290
REMARK  122  A    between atoms: _289  and  _292
REMARK  123  A    between atoms: _292  and  _293
REMARK  124  A    between atoms: _293  and  _294
REMARK  125  A    between atoms: _294  and  _295
REMARK  126  A    between atoms: _304  and  _306
REMARK  127  A    between atoms: _306  and  _307
REMARK  128  A    between atoms: _310  and  _312
REMARK  129  A    between atoms: _312  and  _313
REMARK  130  A    between atoms: _312  and  _315
REMARK  131  A    between atoms: _315  and  _316
REMARK  132  A    between atoms: _321  and  _323
REMARK  133  A    between atoms: _323  and  _324
REMARK  134  A    between atoms: _323  and  _326
REMARK  135  A    between atoms: _326  and  _327
REMARK                            x       y       z     vdW  Elec       q    Type
REMARK                         _______ _______ _______ _____ _____    ______ ____
ROOT
ATOM      1  O   HOH     1       7.094  31.204  -1.403  0.00  0.00    +0.000 OA
ENDROOT
TORSDOF 0
REMARK  Name = ../refined-set-2016/1nli/1nli_pocket.pdb
REMARK  135 active torsions:
REMARK  status: ('A' for Active; 'I' for Inactive)
REMARK    1  A    between atoms: _1  and  _3
REMARK    2  A    between atoms: _3  and  _4
REMARK    3  A    between atoms: _3  and  _6
REMARK    4  A    between atoms: _9  and  _11
REMARK    5  A    between atoms: _11  and  _12
REMARK    6  A    between atoms: _15  and  _17
REMARK    7  A    between atoms: _17  and  _18
REMARK    8  A    between atoms: _17  and  _20
REMARK    9  A    between atoms: _20  and  _21
REMARK   10  A    between atoms: _24  and  _26
REMARK   11  A    between atoms: _26  and  _27
REMARK   12  A    between atoms: _26  and  _29
REMARK   13  A    between atoms: _29  and  _30
REMARK   14  A    between atoms: _33  and  _35
REMARK   15  A    between atoms: _35  and  _36
REMARK   16  A    between atoms: _35  and  _38
REMARK   17  A    between atoms: _38  and  _39
REMARK   18  A    between atoms: _44  and  _46
REMARK   19  A    between atoms: _46  and  _47
REMARK   20  A    between atoms: _46  and  _49
REMARK   21  A    between atoms: _52  and  _54
REMARK   22  A    between atoms: _54  and  _55
REMARK   23  A    between atoms: _54  and  _57
REMARK   24  A    between atoms: _57  and  _58
REMARK   25  A    between atoms: _63  and  _64
REMARK   26  A    between atoms: _66  and  _68
REMARK   27  A    between atoms: _68  and  _69
REMARK   28  A    between atoms: _68  and  _71
REMARK   29  A    between atoms: _71  and  _72
REMARK   30  A    between atoms: _75  and  _77
REMARK   31  A    between atoms: _77  and  _78
REMARK   32  A    between atoms: _77  and  _80
REMARK   33  A    between atoms: _80  and  _81
REMARK   34  A    between atoms: _81  and  _82
REMARK   35  A    between atoms: _84  and  _86
REMARK   36  A    between atoms: _86  and  _87
REMARK   37  A    between atoms: _89  and  _91
REMARK   38  A    between atoms: _91  and  _92
REMARK   39  A    between atoms: _91  and  _94
REMARK   40  A    between atoms: _94  and  _95
REMARK   41  A    between atoms: _101  and  _103
REMARK   42  A    between atoms: _103  and  _104
REMARK   43  A    between atoms: _103  and  _106
REMARK   44  A    between atoms: _106  and  _107
REMARK   45  A    between atoms: _107  and  _108
REMARK   46  A    between atoms: _111  and  _113
REMARK   47  A    between atoms: _113  and  _114
REMARK   48  A    between atoms: _113  and  _116
REMARK   49  A    between atoms: _116  and  _117
REMARK   50  A    between atoms: _119  and  _121
REMARK   51  A    between atoms: _121  and  _122
REMARK   52  A    between atoms: _121  and  _124
REMARK   53  A    between atoms: _124  and  _125
REMARK   54  A    between atoms: _127  and  _129
REMARK   55  A    between atoms: _129  and  _130
REMARK   56  A    between atoms: _132  and  _134
REMARK   57  A    between atoms: _134  and  _135
REMARK   58  A    between atoms: _134  and  _137
REMARK   59  A    between atoms: _137  and  _138
REMARK   60  A    between atoms: _143  and  _145
REMARK   61  A    between atoms: _145  and  _146
REMARK   62  A    between atoms: _145  and  _148
REMARK   63  A    between atoms: _148  and  _149
REMARK   64  A    between atoms: _154  and  _155
REMARK   65  A    between atoms: _157  and  _159
REMARK   66  A    between atoms: _159  and  _160
REMARK   67  A    between atoms: _159  and  _162
REMARK   68  A    between atoms: _162  and  _163
REMARK   69  A    between atoms: _163  and  _164
REMARK   70  A    between atoms: _167  and  _169
REMARK   71  A    between atoms: _169  and  _170
REMARK   72  A    between atoms: _169  and  _172
REMARK   73  A    between atoms: _172  and  _173
REMARK   74  A    between atoms: _173  and  _174
REMARK   75  A    between atoms: _174  and  _175
REMARK   76  A    between atoms: _184  and  _186
REMARK   77  A    between atoms: _186  and  _187
REMARK   78  A    between atoms: _186  and  _189
REMARK   79  A    between atoms: _189  and  _190
REMARK   80  A    between atoms: _193  and  _195
REMARK   81  A    between atoms: _195  and  _196
REMARK   82  A    between atoms: _195  and  _198
REMARK   83  A    between atoms: _198  and  _199
REMARK   84  A    between atoms: _199  and  _200
REMARK   85  A    between atoms: _200  and  _201
REMARK   86  A    between atoms: _210  and  _212
REMARK   87  A    between atoms: _212  and  _213
REMARK   88  A    between atoms: _212  and  _215
REMARK   89  A    between atoms: _215  and  _216
REMARK   90  A    between atoms: _219  and  _221
REMARK   91  A    between atoms: _221  and  _222
REMARK   92  A    between atoms: _221  and  _224
REMARK   93  A    between atoms: _224  and  _225
REMARK   94  A    between atoms: _225  and  _226
REMARK   95  A    between atoms: _228  and  _230
REMARK   96  A    between atoms: _230  and  _231
REMARK   97  A    between atoms: _230  and  _233
REMARK   98  A    between atoms: _233  and  _234
REMARK   99  A    between atoms: _237  and  _239
REMARK  100  A    between atoms: _239  and  _240
REMARK  101  A    between atoms: _239  and  _242
REMARK  102  A    between atoms: _242  and  _243
REMARK  103  A    between atoms: _246  and  _248
REMARK  104  A    between atoms: _248  and  _249
REMARK  105  A    between atoms: _248  and  _251
REMARK  106  A    between atoms: _251  and  _252
REMARK  107  A    between atoms: _252  and  _253
REMARK  108  A    between atoms: _258  and  _260
REMARK  109  A    between atoms: _260  and  _261
REMARK  110  A    between atoms: _260  and  _263
REMARK  111  A    between atoms: _263  and  _264
REMARK  112  A    between atoms: _267  and  _269
REMARK  113  A    between atoms: _269  and  _270
REMARK  114  A    between atoms: _269  and  _272
REMARK  115  A    between atoms: _272  and  _273
REMARK  116  A    between atoms: _275  and  _277
REMARK  117  A    between atoms: _277  and  _278
REMARK  118  A    between atoms: _281  and  _283
REMARK  119  A    between atoms: _283  and  _284
REMARK  120  A    between atoms: _287  and  _289
REMARK  121  A    between atoms: _289  and  _290
REMARK  122  A    between atoms: _289  and  _292
REMARK  123  A    between atoms: _292  and  _293
REMARK  124  A    between atoms: _293  and  _294
REMARK  125  A    between atoms: _294  and  _295
REMARK  126  A    between atoms: _304  and  _306
REMARK  127  A    between atoms: _306  and  _307
REMARK  128  A    between atoms: _310  and  _312
REMARK  129  A    between atoms: _312  and  _313
REMARK  130  A    between atoms: _312  and  _315
REMARK  131  A    between atoms: _315  and  _316
REMARK  132  A    between atoms: _321  and  _323
REMARK  133  A    between atoms: _323  and  _324
REMARK  134  A    between atoms: _323  and  _326
REMARK  135  A    between atoms: _326  and  _327
REMARK                            x       y       z     vdW  Elec       q    Type
REMARK                         _______ _______ _______ _____ _____    ______ ____
ROOT
ATOM      1  O   HOH     1       0.613  37.393   5.232  0.00  0.00    +0.000 OA
ENDROOT
TORSDOF 0
REMARK  Name = ../refined-set-2016/1nli/1nli_pocket.pdb
REMARK  135 active torsions:
REMARK  status: ('A' for Active; 'I' for Inactive)
REMARK    1  A    between atoms: _1  and  _3
REMARK    2  A    between atoms: _3  and  _4
REMARK    3  A    between atoms: _3  and  _6
REMARK    4  A    between atoms: _9  and  _11
REMARK    5  A    between atoms: _11  and  _12
REMARK    6  A    between atoms: _15  and  _17
REMARK    7  A    between atoms: _17  and  _18
REMARK    8  A    between atoms: _17  and  _20
REMARK    9  A    between atoms: _20  and  _21
REMARK   10  A    between atoms: _24  and  _26
REMARK   11  A    between atoms: _26  and  _27
REMARK   12  A    between atoms: _26  and  _29
REMARK   13  A    between atoms: _29  and  _30
REMARK   14  A    between atoms: _33  and  _35
REMARK   15  A    between atoms: _35  and  _36
REMARK   16  A    between atoms: _35  and  _38
REMARK   17  A    between atoms: _38  and  _39
REMARK   18  A    between atoms: _44  and  _46
REMARK   19  A    between atoms: _46  and  _47
REMARK   20  A    between atoms: _46  and  _49
REMARK   21  A    between atoms: _52  and  _54
REMARK   22  A    between atoms: _54  and  _55
REMARK   23  A    between atoms: _54  and  _57
REMARK   24  A    between atoms: _57  and  _58
REMARK   25  A    between atoms: _63  and  _64
REMARK   26  A    between atoms: _66  and  _68
REMARK   27  A    between atoms: _68  and  _69
REMARK   28  A    between atoms: _68  and  _71
REMARK   29  A    between atoms: _71  and  _72
REMARK   30  A    between atoms: _75  and  _77
REMARK   31  A    between atoms: _77  and  _78
REMARK   32  A    between atoms: _77  and  _80
REMARK   33  A    between atoms: _80  and  _81
REMARK   34  A    between atoms: _81  and  _82
REMARK   35  A    between atoms: _84  and  _86
REMARK   36  A    between atoms: _86  and  _87
REMARK   37  A    between atoms: _89  and  _91
REMARK   38  A    between atoms: _91  and  _92
REMARK   39  A    between atoms: _91  and  _94
REMARK   40  A    between atoms: _94  and  _95
REMARK   41  A    between atoms: _101  and  _103
REMARK   42  A    between atoms: _103  and  _104
REMARK   43  A    between atoms: _103  and  _106
REMARK   44  A    between atoms: _106  and  _107
REMARK   45  A    between atoms: _107  and  _108
REMARK   46  A    between atoms: _111  and  _113
REMARK   47  A    between atoms: _113  and  _114
REMARK   48  A    between atoms: _113  and  _116
REMARK   49  A    between atoms: _116  and  _117
REMARK   50  A    between atoms: _119  and  _121
REMARK   51  A    between atoms: _121  and  _122
REMARK   52  A    between atoms: _121  and  _124
REMARK   53  A    between atoms: _124  and  _125
REMARK   54  A    between atoms: _127  and  _129
REMARK   55  A    between atoms: _129  and  _130
REMARK   56  A    between atoms: _132  and  _134
REMARK   57  A    between atoms: _134  and  _135
REMARK   58  A    between atoms: _134  and  _137
REMARK   59  A    between atoms: _137  and  _138
REMARK   60  A    between atoms: _143  and  _145
REMARK   61  A    between atoms: _145  and  _146
REMARK   62  A    between atoms: _145  and  _148
REMARK   63  A    between atoms: _148  and  _149
REMARK   64  A    between atoms: _154  and  _155
REMARK   65  A    between atoms: _157  and  _159
REMARK   66  A    between atoms: _159  and  _160
REMARK   67  A    between atoms: _159  and  _162
REMARK   68  A    between atoms: _162  and  _163
REMARK   69  A    between atoms: _163  and  _164
REMARK   70  A    between atoms: _167  and  _169
REMARK   71  A    between atoms: _169  and  _170
REMARK   72  A    between atoms: _169  and  _172
REMARK   73  A    between atoms: _172  and  _173
REMARK   74  A    between atoms: _173  and  _174
REMARK   75  A    between atoms: _174  and  _175
REMARK   76  A    between atoms: _184  and  _186
REMARK   77  A    between atoms: _186  and  _187
REMARK   78  A    between atoms: _186  and  _189
REMARK   79  A    between atoms: _189  and  _190
REMARK   80  A    between atoms: _193  and  _195
REMARK   81  A    between atoms: _195  and  _196
REMARK   82  A    between atoms: _195  and  _198
REMARK   83  A    between atoms: _198  and  _199
REMARK   84  A    between atoms: _199  and  _200
REMARK   85  A    between atoms: _200  and  _201
REMARK   86  A    between atoms: _210  and  _212
REMARK   87  A    between atoms: _212  and  _213
REMARK   88  A    between atoms: _212  and  _215
REMARK   89  A    between atoms: _215  and  _216
REMARK   90  A    between atoms: _219  and  _221
REMARK   91  A    between atoms: _221  and  _222
REMARK   92  A    between atoms: _221  and  _224
REMARK   93  A    between atoms: _224  and  _225
REMARK   94  A    between atoms: _225  and  _226
REMARK   95  A    between atoms: _228  and  _230
REMARK   96  A    between atoms: _230  and  _231
REMARK   97  A    between atoms: _230  and  _233
REMARK   98  A    between atoms: _233  and  _234
REMARK   99  A    between atoms: _237  and  _239
REMARK  100  A    between atoms: _239  and  _240
REMARK  101  A    between atoms: _239  and  _242
REMARK  102  A    between atoms: _242  and  _243
REMARK  103  A    between atoms: _246  and  _248
REMARK  104  A    between atoms: _248  and  _249
REMARK  105  A    between atoms: _248  and  _251
REMARK  106  A    between atoms: _251  and  _252
REMARK  107  A    between atoms: _252  and  _253
REMARK  108  A    between atoms: _258  and  _260
REMARK  109  A    between atoms: _260  and  _261
REMARK  110  A    between atoms: _260  and  _263
REMARK  111  A    between atoms: _263  and  _264
REMARK  112  A    between atoms: _267  and  _269
REMARK  113  A    between atoms: _269  and  _270
REMARK  114  A    between atoms: _269  and  _272
REMARK  115  A    between atoms: _272  and  _273
REMARK  116  A    between atoms: _275  and  _277
REMARK  117  A    between atoms: _277  and  _278
REMARK  118  A    between atoms: _281  and  _283
REMARK  119  A    between atoms: _283  and  _284
REMARK  120  A    between atoms: _287  and  _289
REMARK  121  A    between atoms: _289  and  _290
REMARK  122  A    between atoms: _289  and  _292
REMARK  123  A    between atoms: _292  and  _293
REMARK  124  A    between atoms: _293  and  _294
REMARK  125  A    between atoms: _294  and  _295
REMARK  126  A    between atoms: _304  and  _306
REMARK  127  A    between atoms: _306  and  _307
REMARK  128  A    between atoms: _310  and  _312
REMARK  129  A    between atoms: _312  and  _313
REMARK  130  A    between atoms: _312  and  _315
REMARK  131  A    between atoms: _315  and  _316
REMARK  132  A    between atoms: _321  and  _323
REMARK  133  A    between atoms: _323  and  _324
REMARK  134  A    between atoms: _323  and  _326
REMARK  135  A    between atoms: _326  and  _327
REMARK                            x       y       z     vdW  Elec       q    Type
REMARK                         _______ _______ _______ _____ _____    ______ ____
ROOT
ATOM      1  O   HOH     1       2.231  26.775  -2.153  0.00  0.00    +0.000 OA
ENDROOT
TORSDOF 0
