REMARK  Name = ../refined-set-2016/3nuj/3nuj_pocket.pdb
REMARK  238 active torsions:
REMARK  status: ('A' for Active; 'I' for Inactive)
REMARK    1  A    between atoms: _1  and  _3
REMARK    2  A    between atoms: _3  and  _4
REMARK    3  A    between atoms: _3  and  _6
REMARK    4  A    between atoms: _6  and  _7
REMARK    5  A    between atoms: _7  and  _8
REMARK    6  A    between atoms: _8  and  _9
REMARK    7  A    between atoms: _18  and  _20
REMARK    8  A    between atoms: _20  and  _21
REMARK    9  A    between atoms: _20  and  _23
REMARK   10  A    between atoms: _23  and  _24
REMARK   11  A    between atoms: _27  and  _29
REMARK   12  A    between atoms: _29  and  _30
REMARK   13  A    between atoms: _29  and  _32
REMARK   14  A    between atoms: _32  and  _33
REMARK   15  A    between atoms: _36  and  _38
REMARK   16  A    between atoms: _38  and  _39
REMARK   17  A    between atoms: _38  and  _41
REMARK   18  A    between atoms: _41  and  _42
REMARK   19  A    between atoms: _45  and  _47
REMARK   20  A    between atoms: _47  and  _48
REMARK   21  A    between atoms: _47  and  _50
REMARK   22  A    between atoms: _50  and  _51
REMARK   23  A    between atoms: _54  and  _56
REMARK   24  A    between atoms: _56  and  _57
REMARK   25  A    between atoms: _59  and  _61
REMARK   26  A    between atoms: _61  and  _62
REMARK   27  A    between atoms: _65  and  _67
REMARK   28  A    between atoms: _67  and  _68
REMARK   29  A    between atoms: _67  and  _70
REMARK   30  A    between atoms: _70  and  _71
REMARK   31  A    between atoms: _74  and  _76
REMARK   32  A    between atoms: _76  and  _77
REMARK   33  A    between atoms: _76  and  _79
REMARK   34  A    between atoms: _79  and  _80
REMARK   35  A    between atoms: _83  and  _85
REMARK   36  A    between atoms: _85  and  _86
REMARK   37  A    between atoms: _85  and  _88
REMARK   38  A    between atoms: _88  and  _89
REMARK   39  A    between atoms: _92  and  _94
REMARK   40  A    between atoms: _94  and  _95
REMARK   41  A    between atoms: _94  and  _97
REMARK   42  A    between atoms: _100  and  _102
REMARK   43  A    between atoms: _102  and  _103
REMARK   44  A    between atoms: _102  and  _105
REMARK   45  A    between atoms: _105  and  _106
REMARK   46  A    between atoms: _109  and  _111
REMARK   47  A    between atoms: _111  and  _112
REMARK   48  A    between atoms: _111  and  _114
REMARK   49  A    between atoms: _114  and  _115
REMARK   50  A    between atoms: _115  and  _116
REMARK   51  A    between atoms: _116  and  _117
REMARK   52  A    between atoms: _117  and  _118
REMARK   53  A    between atoms: _122  and  _124
REMARK   54  A    between atoms: _124  and  _125
REMARK   55  A    between atoms: _124  and  _127
REMARK   56  A    between atoms: _127  and  _128
REMARK   57  A    between atoms: _128  and  _129
REMARK   58  A    between atoms: _131  and  _133
REMARK   59  A    between atoms: _133  and  _134
REMARK   60  A    between atoms: _133  and  _136
REMARK   61  A    between atoms: _136  and  _137
REMARK   62  A    between atoms: _140  and  _142
REMARK   63  A    between atoms: _142  and  _143
REMARK   64  A    between atoms: _145  and  _147
REMARK   65  A    between atoms: _147  and  _148
REMARK   66  A    between atoms: _150  and  _152
REMARK   67  A    between atoms: _152  and  _153
REMARK   68  A    between atoms: _152  and  _155
REMARK   69  A    between atoms: _155  and  _156
REMARK   70  A    between atoms: _159  and  _161
REMARK   71  A    between atoms: _161  and  _162
REMARK   72  A    between atoms: _164  and  _166
REMARK   73  A    between atoms: _166  and  _167
REMARK   74  A    between atoms: _169  and  _171
REMARK   75  A    between atoms: _171  and  _172
REMARK   76  A    between atoms: _171  and  _174
REMARK   77  A    between atoms: _174  and  _175
REMARK   78  A    between atoms: _181  and  _183
REMARK   79  A    between atoms: _183  and  _184
REMARK   80  A    between atoms: _183  and  _186
REMARK   81  A    between atoms: _189  and  _191
REMARK   82  A    between atoms: _191  and  _192
REMARK   83  A    between atoms: _191  and  _194
REMARK   84  A    between atoms: _197  and  _199
REMARK   85  A    between atoms: _199  and  _200
REMARK   86  A    between atoms: _199  and  _202
REMARK   87  A    between atoms: _202  and  _203
REMARK   88  A    between atoms: _207  and  _208
REMARK   89  A    between atoms: _213  and  _215
REMARK   90  A    between atoms: _215  and  _216
REMARK   91  A    between atoms: _215  and  _218
REMARK   92  A    between atoms: _218  and  _219
REMARK   93  A    between atoms: _223  and  _224
REMARK   94  A    between atoms: _229  and  _231
REMARK   95  A    between atoms: _231  and  _232
REMARK   96  A    between atoms: _231  and  _234
REMARK   97  A    between atoms: _237  and  _239
REMARK   98  A    between atoms: _239  and  _240
REMARK   99  A    between atoms: _239  and  _242
REMARK  100  A    between atoms: _242  and  _243
REMARK  101  A    between atoms: _248  and  _250
REMARK  102  A    between atoms: _250  and  _251
REMARK  103  A    between atoms: _250  and  _253
REMARK  104  A    between atoms: _253  and  _254
REMARK  105  A    between atoms: _257  and  _259
REMARK  106  A    between atoms: _259  and  _260
REMARK  107  A    between atoms: _259  and  _262
REMARK  108  A    between atoms: _262  and  _263
REMARK  109  A    between atoms: _266  and  _268
REMARK  110  A    between atoms: _268  and  _269
REMARK  111  A    between atoms: _271  and  _273
REMARK  112  A    between atoms: _273  and  _274
REMARK  113  A    between atoms: _273  and  _276
REMARK  114  A    between atoms: _277  and  _278
REMARK  115  A    between atoms: _278  and  _279
REMARK  116  A    between atoms: _288  and  _290
REMARK  117  A    between atoms: _290  and  _291
REMARK  118  A    between atoms: _290  and  _293
REMARK  119  A    between atoms: _293  and  _294
REMARK  120  A    between atoms: _299  and  _301
REMARK  121  A    between atoms: _301  and  _302
REMARK  122  A    between atoms: _301  and  _304
REMARK  123  A    between atoms: _304  and  _305
REMARK  124  A    between atoms: _305  and  _306
REMARK  125  A    between atoms: _306  and  _307
REMARK  126  A    between atoms: _316  and  _318
REMARK  127  A    between atoms: _318  and  _319
REMARK  128  A    between atoms: _318  and  _321
REMARK  129  A    between atoms: _321  and  _322
REMARK  130  A    between atoms: _325  and  _327
REMARK  131  A    between atoms: _327  and  _328
REMARK  132  A    between atoms: _327  and  _330
REMARK  133  A    between atoms: _330  and  _331
REMARK  134  A    between atoms: _334  and  _336
REMARK  135  A    between atoms: _336  and  _337
REMARK  136  A    between atoms: _336  and  _339
REMARK  137  A    between atoms: _339  and  _340
REMARK  138  A    between atoms: _343  and  _345
REMARK  139  A    between atoms: _345  and  _346
REMARK  140  A    between atoms: _345  and  _348
REMARK  141  A    between atoms: _348  and  _349
REMARK  142  A    between atoms: _352  and  _354
REMARK  143  A    between atoms: _354  and  _355
REMARK  144  A    between atoms: _357  and  _359
REMARK  145  A    between atoms: _359  and  _360
REMARK  146  A    between atoms: _363  and  _365
REMARK  147  A    between atoms: _365  and  _366
REMARK  148  A    between atoms: _365  and  _368
REMARK  149  A    between atoms: _368  and  _369
REMARK  150  A    between atoms: _372  and  _374
REMARK  151  A    between atoms: _374  and  _375
REMARK  152  A    between atoms: _374  and  _377
REMARK  153  A    between atoms: _377  and  _378
REMARK  154  A    between atoms: _381  and  _383
REMARK  155  A    between atoms: _383  and  _384
REMARK  156  A    between atoms: _383  and  _386
REMARK  157  A    between atoms: _386  and  _387
REMARK  158  A    between atoms: _390  and  _392
REMARK  159  A    between atoms: _392  and  _393
REMARK  160  A    between atoms: _392  and  _395
REMARK  161  A    between atoms: _398  and  _400
REMARK  162  A    between atoms: _400  and  _401
REMARK  163  A    between atoms: _400  and  _403
REMARK  164  A    between atoms: _403  and  _404
REMARK  165  A    between atoms: _407  and  _409
REMARK  166  A    between atoms: _409  and  _410
REMARK  167  A    between atoms: _409  and  _412
REMARK  168  A    between atoms: _412  and  _413
REMARK  169  A    between atoms: _413  and  _414
REMARK  170  A    between atoms: _414  and  _415
REMARK  171  A    between atoms: _415  and  _416
REMARK  172  A    between atoms: _420  and  _422
REMARK  173  A    between atoms: _422  and  _423
REMARK  174  A    between atoms: _422  and  _425
REMARK  175  A    between atoms: _425  and  _426
REMARK  176  A    between atoms: _426  and  _427
REMARK  177  A    between atoms: _429  and  _431
REMARK  178  A    between atoms: _431  and  _432
REMARK  179  A    between atoms: _431  and  _434
REMARK  180  A    between atoms: _434  and  _435
REMARK  181  A    between atoms: _438  and  _440
REMARK  182  A    between atoms: _440  and  _441
REMARK  183  A    between atoms: _443  and  _445
REMARK  184  A    between atoms: _445  and  _446
REMARK  185  A    between atoms: _448  and  _450
REMARK  186  A    between atoms: _450  and  _451
REMARK  187  A    between atoms: _450  and  _453
REMARK  188  A    between atoms: _453  and  _454
REMARK  189  A    between atoms: _457  and  _459
REMARK  190  A    between atoms: _459  and  _460
REMARK  191  A    between atoms: _462  and  _464
REMARK  192  A    between atoms: _464  and  _465
REMARK  193  A    between atoms: _467  and  _469
REMARK  194  A    between atoms: _469  and  _470
REMARK  195  A    between atoms: _469  and  _472
REMARK  196  A    between atoms: _472  and  _473
REMARK  197  A    between atoms: _479  and  _481
REMARK  198  A    between atoms: _481  and  _482
REMARK  199  A    between atoms: _481  and  _484
REMARK  200  A    between atoms: _487  and  _489
REMARK  201  A    between atoms: _489  and  _490
REMARK  202  A    between atoms: _489  and  _492
REMARK  203  A    between atoms: _495  and  _497
REMARK  204  A    between atoms: _497  and  _498
REMARK  205  A    between atoms: _497  and  _500
REMARK  206  A    between atoms: _500  and  _501
REMARK  207  A    between atoms: _504  and  _506
REMARK  208  A    between atoms: _506  and  _507
REMARK  209  A    between atoms: _506  and  _509
REMARK  210  A    between atoms: _509  and  _510
REMARK  211  A    between atoms: _514  and  _515
REMARK  212  A    between atoms: _520  and  _522
REMARK  213  A    between atoms: _522  and  _523
REMARK  214  A    between atoms: _522  and  _525
REMARK  215  A    between atoms: _528  and  _530
REMARK  216  A    between atoms: _530  and  _531
REMARK  217  A    between atoms: _530  and  _533
REMARK  218  A    between atoms: _533  and  _534
REMARK  219  A    between atoms: _539  and  _541
REMARK  220  A    between atoms: _541  and  _542
REMARK  221  A    between atoms: _541  and  _544
REMARK  222  A    between atoms: _544  and  _545
REMARK  223  A    between atoms: _548  and  _550
REMARK  224  A    between atoms: _550  and  _551
REMARK  225  A    between atoms: _550  and  _553
REMARK  226  A    between atoms: _553  and  _554
REMARK  227  A    between atoms: _557  and  _559
REMARK  228  A    between atoms: _559  and  _560
REMARK  229  A    between atoms: _562  and  _564
REMARK  230  A    between atoms: _564  and  _565
REMARK  231  A    between atoms: _564  and  _567
REMARK  232  A    between atoms: _567  and  _568
REMARK  233  A    between atoms: _568  and  _569
REMARK  234  A    between atoms: _569  and  _570
REMARK  235  A    between atoms: _579  and  _581
REMARK  236  A    between atoms: _581  and  _582
REMARK  237  A    between atoms: _581  and  _584
REMARK  238  A    between atoms: _584  and  _585
REMARK                            x       y       z     vdW  Elec       q    Type
REMARK                         _______ _______ _______ _____ _____    ______ ____
ROOT
ATOM      1  NE  ARG A   1      22.375  22.059  14.977  0.00  0.00    -0.265 N 
ATOM      2  HE  ARG A   1      22.475  22.396  15.956  0.00  0.00    +0.259 HD
ATOM      3  CZ  ARG A   1      21.558  22.703  14.140  0.00  0.00    +0.342 C 
ATOM      4  NH2 ARG A   1      20.894  23.756  14.588  0.00  0.00    -0.292 N 
ATOM      5 HH21 ARG A   1      21.014  24.066  15.573  0.00  0.00    +0.255 HD
ATOM      6 HH22 ARG A   1      20.252  24.274  13.955  0.00  0.00    +0.255 HD
ATOM      7  NH1 ARG A   1      21.431  22.274  12.895  0.00  0.00    -0.292 N 
ATOM      8 HH11 ARG A   1      21.965  21.441  12.575  0.00  0.00    +0.255 HD
ATOM      9 HH12 ARG A   1      20.797  22.770  12.236  0.00  0.00    +0.255 HD
ENDROOT
BRANCH   1  10
ATOM     10  CD  ARG A   1      23.127  20.895  14.541  0.00  0.00    +0.174 C 
BRANCH  10  11
ATOM     11  CG  ARG A   1      23.824  20.226  15.704  0.00  0.00    +0.044 C 
BRANCH  11  12
ATOM     12  CB  ARG A   1      24.502  18.926  15.379  0.00  0.00    +0.023 C 
BRANCH  12  13
ATOM     13  CA  ARG A   1      25.099  18.204  16.596  0.00  0.00    +0.102 C 
BRANCH  13  14
ATOM     14  N   ARG A   1      26.299  18.897  17.071  0.00  0.00    -0.244 NA
ATOM     15  H   ARG A   1      26.640  19.761  16.603  0.00  0.00    +0.141 HD
ENDBRANCH  13  14
BRANCH  13  16
ATOM     16  C   ARG A   1      25.420  16.779  16.164  0.00  0.00    +0.199 C 
ATOM     17  O   ARG A   1      26.413  16.674  15.485  0.00  0.00    -0.219 OA
ENDBRANCH  13  16
ENDBRANCH  12  13
ENDBRANCH  11  12
ENDBRANCH  10  11
ENDBRANCH   1  10
TORSDOF 6
REMARK  Name = ../refined-set-2016/3nuj/3nuj_pocket.pdb
REMARK  238 active torsions:
REMARK  status: ('A' for Active; 'I' for Inactive)
REMARK    1  A    between atoms: _1  and  _3
REMARK    2  A    between atoms: _3  and  _4
REMARK    3  A    between atoms: _3  and  _6
REMARK    4  A    between atoms: _6  and  _7
REMARK    5  A    between atoms: _7  and  _8
REMARK    6  A    between atoms: _8  and  _9
REMARK    7  A    between atoms: _18  and  _20
REMARK    8  A    between atoms: _20  and  _21
REMARK    9  A    between atoms: _20  and  _23
REMARK   10  A    between atoms: _23  and  _24
REMARK   11  A    between atoms: _27  and  _29
REMARK   12  A    between atoms: _29  and  _30
REMARK   13  A    between atoms: _29  and  _32
REMARK   14  A    between atoms: _32  and  _33
REMARK   15  A    between atoms: _36  and  _38
REMARK   16  A    between atoms: _38  and  _39
REMARK   17  A    between atoms: _38  and  _41
REMARK   18  A    between atoms: _41  and  _42
REMARK   19  A    between atoms: _45  and  _47
REMARK   20  A    between atoms: _47  and  _48
REMARK   21  A    between atoms: _47  and  _50
REMARK   22  A    between atoms: _50  and  _51
REMARK   23  A    between atoms: _54  and  _56
REMARK   24  A    between atoms: _56  and  _57
REMARK   25  A    between atoms: _59  and  _61
REMARK   26  A    between atoms: _61  and  _62
REMARK   27  A    between atoms: _65  and  _67
REMARK   28  A    between atoms: _67  and  _68
REMARK   29  A    between atoms: _67  and  _70
REMARK   30  A    between atoms: _70  and  _71
REMARK   31  A    between atoms: _74  and  _76
REMARK   32  A    between atoms: _76  and  _77
REMARK   33  A    between atoms: _76  and  _79
REMARK   34  A    between atoms: _79  and  _80
REMARK   35  A    between atoms: _83  and  _85
REMARK   36  A    between atoms: _85  and  _86
REMARK   37  A    between atoms: _85  and  _88
REMARK   38  A    between atoms: _88  and  _89
REMARK   39  A    between atoms: _92  and  _94
REMARK   40  A    between atoms: _94  and  _95
REMARK   41  A    between atoms: _94  and  _97
REMARK   42  A    between atoms: _100  and  _102
REMARK   43  A    between atoms: _102  and  _103
REMARK   44  A    between atoms: _102  and  _105
REMARK   45  A    between atoms: _105  and  _106
REMARK   46  A    between atoms: _109  and  _111
REMARK   47  A    between atoms: _111  and  _112
REMARK   48  A    between atoms: _111  and  _114
REMARK   49  A    between atoms: _114  and  _115
REMARK   50  A    between atoms: _115  and  _116
REMARK   51  A    between atoms: _116  and  _117
REMARK   52  A    between atoms: _117  and  _118
REMARK   53  A    between atoms: _122  and  _124
REMARK   54  A    between atoms: _124  and  _125
REMARK   55  A    between atoms: _124  and  _127
REMARK   56  A    between atoms: _127  and  _128
REMARK   57  A    between atoms: _128  and  _129
REMARK   58  A    between atoms: _131  and  _133
REMARK   59  A    between atoms: _133  and  _134
REMARK   60  A    between atoms: _133  and  _136
REMARK   61  A    between atoms: _136  and  _137
REMARK   62  A    between atoms: _140  and  _142
REMARK   63  A    between atoms: _142  and  _143
REMARK   64  A    between atoms: _145  and  _147
REMARK   65  A    between atoms: _147  and  _148
REMARK   66  A    between atoms: _150  and  _152
REMARK   67  A    between atoms: _152  and  _153
REMARK   68  A    between atoms: _152  and  _155
REMARK   69  A    between atoms: _155  and  _156
REMARK   70  A    between atoms: _159  and  _161
REMARK   71  A    between atoms: _161  and  _162
REMARK   72  A    between atoms: _164  and  _166
REMARK   73  A    between atoms: _166  and  _167
REMARK   74  A    between atoms: _169  and  _171
REMARK   75  A    between atoms: _171  and  _172
REMARK   76  A    between atoms: _171  and  _174
REMARK   77  A    between atoms: _174  and  _175
REMARK   78  A    between atoms: _181  and  _183
REMARK   79  A    between atoms: _183  and  _184
REMARK   80  A    between atoms: _183  and  _186
REMARK   81  A    between atoms: _189  and  _191
REMARK   82  A    between atoms: _191  and  _192
REMARK   83  A    between atoms: _191  and  _194
REMARK   84  A    between atoms: _197  and  _199
REMARK   85  A    between atoms: _199  and  _200
REMARK   86  A    between atoms: _199  and  _202
REMARK   87  A    between atoms: _202  and  _203
REMARK   88  A    between atoms: _207  and  _208
REMARK   89  A    between atoms: _213  and  _215
REMARK   90  A    between atoms: _215  and  _216
REMARK   91  A    between atoms: _215  and  _218
REMARK   92  A    between atoms: _218  and  _219
REMARK   93  A    between atoms: _223  and  _224
REMARK   94  A    between atoms: _229  and  _231
REMARK   95  A    between atoms: _231  and  _232
REMARK   96  A    between atoms: _231  and  _234
REMARK   97  A    between atoms: _237  and  _239
REMARK   98  A    between atoms: _239  and  _240
REMARK   99  A    between atoms: _239  and  _242
REMARK  100  A    between atoms: _242  and  _243
REMARK  101  A    between atoms: _248  and  _250
REMARK  102  A    between atoms: _250  and  _251
REMARK  103  A    between atoms: _250  and  _253
REMARK  104  A    between atoms: _253  and  _254
REMARK  105  A    between atoms: _257  and  _259
REMARK  106  A    between atoms: _259  and  _260
REMARK  107  A    between atoms: _259  and  _262
REMARK  108  A    between atoms: _262  and  _263
REMARK  109  A    between atoms: _266  and  _268
REMARK  110  A    between atoms: _268  and  _269
REMARK  111  A    between atoms: _271  and  _273
REMARK  112  A    between atoms: _273  and  _274
REMARK  113  A    between atoms: _273  and  _276
REMARK  114  A    between atoms: _277  and  _278
REMARK  115  A    between atoms: _278  and  _279
REMARK  116  A    between atoms: _288  and  _290
REMARK  117  A    between atoms: _290  and  _291
REMARK  118  A    between atoms: _290  and  _293
REMARK  119  A    between atoms: _293  and  _294
REMARK  120  A    between atoms: _299  and  _301
REMARK  121  A    between atoms: _301  and  _302
REMARK  122  A    between atoms: _301  and  _304
REMARK  123  A    between atoms: _304  and  _305
REMARK  124  A    between atoms: _305  and  _306
REMARK  125  A    between atoms: _306  and  _307
REMARK  126  A    between atoms: _316  and  _318
REMARK  127  A    between atoms: _318  and  _319
REMARK  128  A    between atoms: _318  and  _321
REMARK  129  A    between atoms: _321  and  _322
REMARK  130  A    between atoms: _325  and  _327
REMARK  131  A    between atoms: _327  and  _328
REMARK  132  A    between atoms: _327  and  _330
REMARK  133  A    between atoms: _330  and  _331
REMARK  134  A    between atoms: _334  and  _336
REMARK  135  A    between atoms: _336  and  _337
REMARK  136  A    between atoms: _336  and  _339
REMARK  137  A    between atoms: _339  and  _340
REMARK  138  A    between atoms: _343  and  _345
REMARK  139  A    between atoms: _345  and  _346
REMARK  140  A    between atoms: _345  and  _348
REMARK  141  A    between atoms: _348  and  _349
REMARK  142  A    between atoms: _352  and  _354
REMARK  143  A    between atoms: _354  and  _355
REMARK  144  A    between atoms: _357  and  _359
REMARK  145  A    between atoms: _359  and  _360
REMARK  146  A    between atoms: _363  and  _365
REMARK  147  A    between atoms: _365  and  _366
REMARK  148  A    between atoms: _365  and  _368
REMARK  149  A    between atoms: _368  and  _369
REMARK  150  A    between atoms: _372  and  _374
REMARK  151  A    between atoms: _374  and  _375
REMARK  152  A    between atoms: _374  and  _377
REMARK  153  A    between atoms: _377  and  _378
REMARK  154  A    between atoms: _381  and  _383
REMARK  155  A    between atoms: _383  and  _384
REMARK  156  A    between atoms: _383  and  _386
REMARK  157  A    between atoms: _386  and  _387
REMARK  158  A    between atoms: _390  and  _392
REMARK  159  A    between atoms: _392  and  _393
REMARK  160  A    between atoms: _392  and  _395
REMARK  161  A    between atoms: _398  and  _400
REMARK  162  A    between atoms: _400  and  _401
REMARK  163  A    between atoms: _400  and  _403
REMARK  164  A    between atoms: _403  and  _404
REMARK  165  A    between atoms: _407  and  _409
REMARK  166  A    between atoms: _409  and  _410
REMARK  167  A    between atoms: _409  and  _412
REMARK  168  A    between atoms: _412  and  _413
REMARK  169  A    between atoms: _413  and  _414
REMARK  170  A    between atoms: _414  and  _415
REMARK  171  A    between atoms: _415  and  _416
REMARK  172  A    between atoms: _420  and  _422
REMARK  173  A    between atoms: _422  and  _423
REMARK  174  A    between atoms: _422  and  _425
REMARK  175  A    between atoms: _425  and  _426
REMARK  176  A    between atoms: _426  and  _427
REMARK  177  A    between atoms: _429  and  _431
REMARK  178  A    between atoms: _431  and  _432
REMARK  179  A    between atoms: _431  and  _434
REMARK  180  A    between atoms: _434  and  _435
REMARK  181  A    between atoms: _438  and  _440
REMARK  182  A    between atoms: _440  and  _441
REMARK  183  A    between atoms: _443  and  _445
REMARK  184  A    between atoms: _445  and  _446
REMARK  185  A    between atoms: _448  and  _450
REMARK  186  A    between atoms: _450  and  _451
REMARK  187  A    between atoms: _450  and  _453
REMARK  188  A    between atoms: _453  and  _454
REMARK  189  A    between atoms: _457  and  _459
REMARK  190  A    between atoms: _459  and  _460
REMARK  191  A    between atoms: _462  and  _464
REMARK  192  A    between atoms: _464  and  _465
REMARK  193  A    between atoms: _467  and  _469
REMARK  194  A    between atoms: _469  and  _470
REMARK  195  A    between atoms: _469  and  _472
REMARK  196  A    between atoms: _472  and  _473
REMARK  197  A    between atoms: _479  and  _481
REMARK  198  A    between atoms: _481  and  _482
REMARK  199  A    between atoms: _481  and  _484
REMARK  200  A    between atoms: _487  and  _489
REMARK  201  A    between atoms: _489  and  _490
REMARK  202  A    between atoms: _489  and  _492
REMARK  203  A    between atoms: _495  and  _497
REMARK  204  A    between atoms: _497  and  _498
REMARK  205  A    between atoms: _497  and  _500
REMARK  206  A    between atoms: _500  and  _501
REMARK  207  A    between atoms: _504  and  _506
REMARK  208  A    between atoms: _506  and  _507
REMARK  209  A    between atoms: _506  and  _509
REMARK  210  A    between atoms: _509  and  _510
REMARK  211  A    between atoms: _514  and  _515
REMARK  212  A    between atoms: _520  and  _522
REMARK  213  A    between atoms: _522  and  _523
REMARK  214  A    between atoms: _522  and  _525
REMARK  215  A    between atoms: _528  and  _530
REMARK  216  A    between atoms: _530  and  _531
REMARK  217  A    between atoms: _530  and  _533
REMARK  218  A    between atoms: _533  and  _534
REMARK  219  A    between atoms: _539  and  _541
REMARK  220  A    between atoms: _541  and  _542
REMARK  221  A    between atoms: _541  and  _544
REMARK  222  A    between atoms: _544  and  _545
REMARK  223  A    between atoms: _548  and  _550
REMARK  224  A    between atoms: _550  and  _551
REMARK  225  A    between atoms: _550  and  _553
REMARK  226  A    between atoms: _553  and  _554
REMARK  227  A    between atoms: _557  and  _559
REMARK  228  A    between atoms: _559  and  _560
REMARK  229  A    between atoms: _562  and  _564
REMARK  230  A    between atoms: _564  and  _565
REMARK  231  A    between atoms: _564  and  _567
REMARK  232  A    between atoms: _567  and  _568
REMARK  233  A    between atoms: _568  and  _569
REMARK  234  A    between atoms: _569  and  _570
REMARK  235  A    between atoms: _579  and  _581
REMARK  236  A    between atoms: _581  and  _582
REMARK  237  A    between atoms: _581  and  _584
REMARK  238  A    between atoms: _584  and  _585
REMARK                            x       y       z     vdW  Elec       q    Type
REMARK                         _______ _______ _______ _____ _____    ______ ____
ROOT
ATOM      1  C   ALA A   6      10.667  12.562  17.242  0.00  0.00    +0.241 C 
ATOM      2  O   ALA A   6      11.331  11.524  17.258  0.00  0.00    -0.273 OA
ATOM      3  N   ASP A   7       9.337  12.551  17.223  0.00  0.00    -0.297 N 
ATOM      4  H   ASP A   7       8.796  13.439  17.210  0.00  0.00    +0.150 HD
ENDROOT
BRANCH   1   5
ATOM      5  CA  ALA A   6      11.403  13.886  17.236  0.00  0.00    +0.149 C 
ATOM      6  CB  ALA A   6      12.250  14.053  15.975  0.00  0.00    +0.031 C 
BRANCH   5   9
ATOM      7  C   GLY A   5      11.991  14.622  19.497  0.00  0.00    +0.243 C 
ATOM      8  O   GLY A   5      10.920  15.208  19.583  0.00  0.00    -0.273 OA
ATOM      9  N   ALA A   6      12.293  13.985  18.397  0.00  0.00    -0.297 N 
ATOM     10  H   ALA A   6      13.221  13.520  18.341  0.00  0.00    +0.150 HD
BRANCH   7  11
ATOM     11  CA  GLY A   5      12.952  14.616  20.670  0.00  0.00    +0.176 C 
BRANCH  11  14
ATOM     12  C   THR A   4      14.256  12.602  20.669  0.00  0.00    +0.243 C 
ATOM     13  O   THR A   4      13.316  12.041  21.208  0.00  0.00    -0.273 OA
ATOM     14  N   GLY A   5      14.190  13.891  20.379  0.00  0.00    -0.295 N 
ATOM     15  H   GLY A   5      15.002  14.380  19.952  0.00  0.00    +0.150 HD
BRANCH  12  16
ATOM     16  CA  THR A   4      15.536  11.879  20.308  0.00  0.00    +0.176 C 
BRANCH  16  18
ATOM     17  C   ASP A   3      15.993  12.766  18.101  0.00  0.00    +0.241 C 
ATOM     18  N   THR A   4      16.389  12.604  19.366  0.00  0.00    -0.295 N 
ATOM     19  H   THR A   4      17.301  12.992  19.681  0.00  0.00    +0.150 HD
ATOM     20  O   ASP A   3      14.919  12.346  17.671  0.00  0.00    -0.273 OA
BRANCH  17  21
ATOM     21  CA  ASP A   3      16.953  13.526  17.200  0.00  0.00    +0.160 C 
BRANCH  21  24
ATOM     22  C   LEU A   2      19.090  12.712  16.330  0.00  0.00    +0.241 C 
ATOM     23  O   LEU A   2      19.723  13.303  17.203  0.00  0.00    -0.273 OA
ATOM     24  N   ASP A   3      17.762  12.690  16.326  0.00  0.00    -0.297 N 
ATOM     25  H   ASP A   3      17.278  12.046  15.668  0.00  0.00    +0.150 HD
BRANCH  22  26
ATOM     26  CA  LEU A   2      19.809  11.980  15.187  0.00  0.00    +0.149 C 
BRANCH  26  28
ATOM     27  C   LEU A   1      19.712  13.639  13.435  0.00  0.00    +0.238 C 
ATOM     28  N   LEU A   2      20.423  12.961  14.327  0.00  0.00    -0.297 N 
ATOM     29  H   LEU A   2      21.444  13.141  14.407  0.00  0.00    +0.150 HD
ATOM     30  O   LEU A   1      18.528  13.375  13.179  0.00  0.00    -0.274 OA
BRANCH  27  31
ATOM     31  CA  LEU A   1      20.419  14.774  12.721  0.00  0.00    +0.145 C 
BRANCH  31  32
ATOM     32  N   LEU A   1      20.264  14.646  11.270  0.00  0.00    -0.238 NA
ATOM     33  H   LEU A   1      19.429  15.082  10.829  0.00  0.00    +0.142 HD
ENDBRANCH  31  32
BRANCH  31  34
ATOM     34  CB  LEU A   1      19.815  16.124  13.065  0.00  0.00    +0.026 C 
BRANCH  34  35
ATOM     35  CG  LEU A   1      19.815  16.640  14.473  0.00  0.00    +0.002 C 
ATOM     36  CD2 LEU A   1      21.190  16.970  14.953  0.00  0.00    +0.000 C 
ATOM     37  CD1 LEU A   1      18.923  17.894  14.518  0.00  0.00    +0.000 C 
ENDBRANCH  34  35
ENDBRANCH  31  34
ENDBRANCH  27  31
ENDBRANCH  26  28
BRANCH  26  38
ATOM     38  CB  LEU A   2      20.847  11.020  15.716  0.00  0.00    +0.029 C 
BRANCH  38  39
ATOM     39  CG  LEU A   2      21.758  10.259  14.771  0.00  0.00    +0.002 C 
ATOM     40  CD2 LEU A   2      22.758   9.458  15.599  0.00  0.00    +0.000 C 
ATOM     41  CD1 LEU A   2      21.006   9.322  13.853  0.00  0.00    +0.000 C 
ENDBRANCH  38  39
ENDBRANCH  26  38
ENDBRANCH  22  26
ENDBRANCH  21  24
BRANCH  21  42
ATOM     42  CB  ASP A   3      16.129  14.471  16.329  0.00  0.00    +0.143 C 
BRANCH  42  43
ATOM     43  CG  ASP A   3      15.477  15.599  17.060  0.00  0.00    +0.367 C 
ATOM     44  OD2 ASP A   3      15.540  15.568  18.318  0.00  0.00    -0.246 OA
ATOM     45  OD1 ASP A   3      14.914  16.514  16.451  0.00  0.00    -0.246 OA
ENDBRANCH  42  43
ENDBRANCH  21  42
ENDBRANCH  17  21
ENDBRANCH  16  18
BRANCH  16  46
ATOM     46  CB  THR A   4      16.315  11.600  21.607  0.00  0.00    +0.137 C 
ATOM     47  CG2 THR A   4      17.522  10.741  21.307  0.00  0.00    +0.034 C 
BRANCH  46  48
ATOM     48  OG1 THR A   4      16.761  12.848  22.181  0.00  0.00    -0.382 OA
ATOM     49  HG1 THR A   4      15.976  13.416  22.383  0.00  0.00    +0.210 HD
ENDBRANCH  46  48
ENDBRANCH  16  46
ENDBRANCH  12  16
ENDBRANCH  11  14
ENDBRANCH   7  11
ENDBRANCH   5   9
ENDBRANCH   1   5
BRANCH   3  50
ATOM     50  CA  ASP A   7       8.660  11.266  17.221  0.00  0.00    +0.160 C 
BRANCH  50  51
ATOM     51  C   ASP A   7       8.897  10.501  15.917  0.00  0.00    +0.241 C 
ATOM     52  O   ASP A   7       9.061   9.261  15.896  0.00  0.00    -0.273 OA
ATOM     53  N   ASP A   8       8.911  11.276  14.825  0.00  0.00    -0.297 N 
ATOM     54  H   ASP A   8       8.816  12.308  14.907  0.00  0.00    +0.150 HD
BRANCH  53  55
ATOM     55  CA  ASP A   8       9.062  10.645  13.520  0.00  0.00    +0.160 C 
BRANCH  55  56
ATOM     56  C   ASP A   8      10.161  11.332  12.708  0.00  0.00    +0.241 C 
ATOM     57  O   ASP A   8      10.565  12.439  12.934  0.00  0.00    -0.273 OA
ATOM     58  N   THR A   9      10.658  10.633  11.737  0.00  0.00    -0.295 N 
ATOM     59  H   THR A   9      10.289   9.667  11.621  0.00  0.00    +0.150 HD
BRANCH  58  60
ATOM     60  CA  THR A   9      11.674  11.058  10.797  0.00  0.00    +0.176 C 
BRANCH  60  61
ATOM     61  C   THR A   9      11.094  12.011   9.779  0.00  0.00    +0.243 C 
ATOM     62  N   VAL A  10      11.774  13.133   9.568  0.00  0.00    -0.297 N 
ATOM     63  H   VAL A  10      12.634  13.339  10.116  0.00  0.00    +0.150 HD
ATOM     64  O   THR A   9      10.046  11.711   9.231  0.00  0.00    -0.273 OA
BRANCH  62  65
ATOM     65  CA  VAL A  10      11.296  14.078   8.552  0.00  0.00    +0.149 C 
BRANCH  65  66
ATOM     66  C   VAL A  10      12.513  14.490   7.731  0.00  0.00    +0.241 C 
ATOM     67  O   VAL A  10      13.580  14.834   8.250  0.00  0.00    -0.273 OA
ATOM     68  N   ILE A  11      12.320  14.413   6.425  0.00  0.00    -0.298 N 
ATOM     69  H   ILE A  11      11.369  14.169   6.081  0.00  0.00    +0.150 HD
BRANCH  68  70
ATOM     70  CA  ILE A  11      13.361  14.650   5.449  0.00  0.00    +0.137 C 
BRANCH  70  71
ATOM     71  C   ILE A  11      12.941  15.816   4.554  0.00  0.00    +0.227 C 
ATOM     72  O   ILE A  11      11.738  16.009   4.282  0.00  0.00    -0.286 OA
ENDBRANCH  70  71
BRANCH  70  73
ATOM     73  CB  ILE A  11      13.605  13.379   4.616  0.00  0.00    +0.026 C 
ATOM     74  CG2 ILE A  11      14.673  13.604   3.559  0.00  0.00    +0.002 C 
BRANCH  73  75
ATOM     75  CG1 ILE A  11      13.935  12.148   5.470  0.00  0.00    +0.002 C 
ATOM     76  CD1 ILE A  11      15.134  12.379   6.335  0.00  0.00    +0.000 C 
ENDBRANCH  73  75
ENDBRANCH  70  73
ENDBRANCH  68  70
ENDBRANCH  65  66
BRANCH  65  77
ATOM     77  CB  VAL A  10      10.532  15.267   9.129  0.00  0.00    +0.027 C 
ATOM     78  CG2 VAL A  10      11.367  16.029  10.141  0.00  0.00    +0.002 C 
ATOM     79  CG1 VAL A  10      10.084  16.207   8.012  0.00  0.00    +0.002 C 
ENDBRANCH  65  77
ENDBRANCH  62  65
ENDBRANCH  60  61
BRANCH  60  80
ATOM     80  CB  THR A   9      12.201   9.769  10.156  0.00  0.00    +0.137 C 
ATOM     81  CG2 THR A   9      13.202  10.036   9.050  0.00  0.00    +0.034 C 
BRANCH  80  82
ATOM     82  OG1 THR A   9      12.833   9.012  11.190  0.00  0.00    -0.382 OA
ATOM     83  HG1 THR A   9      12.172   8.805  11.897  0.00  0.00    +0.210 HD
ENDBRANCH  80  82
ENDBRANCH  60  80
ENDBRANCH  58  60
ENDBRANCH  55  56
BRANCH  55  84
ATOM     84  CB  ASP A   8       7.753  10.711  12.757  0.00  0.00    +0.143 C 
BRANCH  84  85
ATOM     85  CG  ASP A   8       6.694   9.769  13.331  0.00  0.00    +0.367 C 
ATOM     86  OD2 ASP A   8       5.719  10.341  13.851  0.00  0.00    -0.246 OA
ATOM     87  OD1 ASP A   8       6.784   8.522  13.292  0.00  0.00    -0.246 OA
ENDBRANCH  84  85
ENDBRANCH  55  84
ENDBRANCH  53  55
ENDBRANCH  50  51
BRANCH  50  88
ATOM     88  CB  ASP A   7       7.161  11.426  17.396  0.00  0.00    +0.143 C 
BRANCH  88  89
ATOM     89  CG  ASP A   7       6.717  12.120  18.663  0.00  0.00    +0.367 C 
ATOM     90  OD2 ASP A   7       7.358  11.963  19.712  0.00  0.00    -0.246 OA
ATOM     91  OD1 ASP A   7       5.676  12.845  18.586  0.00  0.00    -0.246 OA
ENDBRANCH  88  89
ENDBRANCH  50  88
ENDBRANCH   3  50
TORSDOF 39
REMARK  Name = ../refined-set-2016/3nuj/3nuj_pocket.pdb
REMARK  238 active torsions:
REMARK  status: ('A' for Active; 'I' for Inactive)
REMARK    1  A    between atoms: _1  and  _3
REMARK    2  A    between atoms: _3  and  _4
REMARK    3  A    between atoms: _3  and  _6
REMARK    4  A    between atoms: _6  and  _7
REMARK    5  A    between atoms: _7  and  _8
REMARK    6  A    between atoms: _8  and  _9
REMARK    7  A    between atoms: _18  and  _20
REMARK    8  A    between atoms: _20  and  _21
REMARK    9  A    between atoms: _20  and  _23
REMARK   10  A    between atoms: _23  and  _24
REMARK   11  A    between atoms: _27  and  _29
REMARK   12  A    between atoms: _29  and  _30
REMARK   13  A    between atoms: _29  and  _32
REMARK   14  A    between atoms: _32  and  _33
REMARK   15  A    between atoms: _36  and  _38
REMARK   16  A    between atoms: _38  and  _39
REMARK   17  A    between atoms: _38  and  _41
REMARK   18  A    between atoms: _41  and  _42
REMARK   19  A    between atoms: _45  and  _47
REMARK   20  A    between atoms: _47  and  _48
REMARK   21  A    between atoms: _47  and  _50
REMARK   22  A    between atoms: _50  and  _51
REMARK   23  A    between atoms: _54  and  _56
REMARK   24  A    between atoms: _56  and  _57
REMARK   25  A    between atoms: _59  and  _61
REMARK   26  A    between atoms: _61  and  _62
REMARK   27  A    between atoms: _65  and  _67
REMARK   28  A    between atoms: _67  and  _68
REMARK   29  A    between atoms: _67  and  _70
REMARK   30  A    between atoms: _70  and  _71
REMARK   31  A    between atoms: _74  and  _76
REMARK   32  A    between atoms: _76  and  _77
REMARK   33  A    between atoms: _76  and  _79
REMARK   34  A    between atoms: _79  and  _80
REMARK   35  A    between atoms: _83  and  _85
REMARK   36  A    between atoms: _85  and  _86
REMARK   37  A    between atoms: _85  and  _88
REMARK   38  A    between atoms: _88  and  _89
REMARK   39  A    between atoms: _92  and  _94
REMARK   40  A    between atoms: _94  and  _95
REMARK   41  A    between atoms: _94  and  _97
REMARK   42  A    between atoms: _100  and  _102
REMARK   43  A    between atoms: _102  and  _103
REMARK   44  A    between atoms: _102  and  _105
REMARK   45  A    between atoms: _105  and  _106
REMARK   46  A    between atoms: _109  and  _111
REMARK   47  A    between atoms: _111  and  _112
REMARK   48  A    between atoms: _111  and  _114
REMARK   49  A    between atoms: _114  and  _115
REMARK   50  A    between atoms: _115  and  _116
REMARK   51  A    between atoms: _116  and  _117
REMARK   52  A    between atoms: _117  and  _118
REMARK   53  A    between atoms: _122  and  _124
REMARK   54  A    between atoms: _124  and  _125
REMARK   55  A    between atoms: _124  and  _127
REMARK   56  A    between atoms: _127  and  _128
REMARK   57  A    between atoms: _128  and  _129
REMARK   58  A    between atoms: _131  and  _133
REMARK   59  A    between atoms: _133  and  _134
REMARK   60  A    between atoms: _133  and  _136
REMARK   61  A    between atoms: _136  and  _137
REMARK   62  A    between atoms: _140  and  _142
REMARK   63  A    between atoms: _142  and  _143
REMARK   64  A    between atoms: _145  and  _147
REMARK   65  A    between atoms: _147  and  _148
REMARK   66  A    between atoms: _150  and  _152
REMARK   67  A    between atoms: _152  and  _153
REMARK   68  A    between atoms: _152  and  _155
REMARK   69  A    between atoms: _155  and  _156
REMARK   70  A    between atoms: _159  and  _161
REMARK   71  A    between atoms: _161  and  _162
REMARK   72  A    between atoms: _164  and  _166
REMARK   73  A    between atoms: _166  and  _167
REMARK   74  A    between atoms: _169  and  _171
REMARK   75  A    between atoms: _171  and  _172
REMARK   76  A    between atoms: _171  and  _174
REMARK   77  A    between atoms: _174  and  _175
REMARK   78  A    between atoms: _181  and  _183
REMARK   79  A    between atoms: _183  and  _184
REMARK   80  A    between atoms: _183  and  _186
REMARK   81  A    between atoms: _189  and  _191
REMARK   82  A    between atoms: _191  and  _192
REMARK   83  A    between atoms: _191  and  _194
REMARK   84  A    between atoms: _197  and  _199
REMARK   85  A    between atoms: _199  and  _200
REMARK   86  A    between atoms: _199  and  _202
REMARK   87  A    between atoms: _202  and  _203
REMARK   88  A    between atoms: _207  and  _208
REMARK   89  A    between atoms: _213  and  _215
REMARK   90  A    between atoms: _215  and  _216
REMARK   91  A    between atoms: _215  and  _218
REMARK   92  A    between atoms: _218  and  _219
REMARK   93  A    between atoms: _223  and  _224
REMARK   94  A    between atoms: _229  and  _231
REMARK   95  A    between atoms: _231  and  _232
REMARK   96  A    between atoms: _231  and  _234
REMARK   97  A    between atoms: _237  and  _239
REMARK   98  A    between atoms: _239  and  _240
REMARK   99  A    between atoms: _239  and  _242
REMARK  100  A    between atoms: _242  and  _243
REMARK  101  A    between atoms: _248  and  _250
REMARK  102  A    between atoms: _250  and  _251
REMARK  103  A    between atoms: _250  and  _253
REMARK  104  A    between atoms: _253  and  _254
REMARK  105  A    between atoms: _257  and  _259
REMARK  106  A    between atoms: _259  and  _260
REMARK  107  A    between atoms: _259  and  _262
REMARK  108  A    between atoms: _262  and  _263
REMARK  109  A    between atoms: _266  and  _268
REMARK  110  A    between atoms: _268  and  _269
REMARK  111  A    between atoms: _271  and  _273
REMARK  112  A    between atoms: _273  and  _274
REMARK  113  A    between atoms: _273  and  _276
REMARK  114  A    between atoms: _277  and  _278
REMARK  115  A    between atoms: _278  and  _279
REMARK  116  A    between atoms: _288  and  _290
REMARK  117  A    between atoms: _290  and  _291
REMARK  118  A    between atoms: _290  and  _293
REMARK  119  A    between atoms: _293  and  _294
REMARK  120  A    between atoms: _299  and  _301
REMARK  121  A    between atoms: _301  and  _302
REMARK  122  A    between atoms: _301  and  _304
REMARK  123  A    between atoms: _304  and  _305
REMARK  124  A    between atoms: _305  and  _306
REMARK  125  A    between atoms: _306  and  _307
REMARK  126  A    between atoms: _316  and  _318
REMARK  127  A    between atoms: _318  and  _319
REMARK  128  A    between atoms: _318  and  _321
REMARK  129  A    between atoms: _321  and  _322
REMARK  130  A    between atoms: _325  and  _327
REMARK  131  A    between atoms: _327  and  _328
REMARK  132  A    between atoms: _327  and  _330
REMARK  133  A    between atoms: _330  and  _331
REMARK  134  A    between atoms: _334  and  _336
REMARK  135  A    between atoms: _336  and  _337
REMARK  136  A    between atoms: _336  and  _339
REMARK  137  A    between atoms: _339  and  _340
REMARK  138  A    between atoms: _343  and  _345
REMARK  139  A    between atoms: _345  and  _346
REMARK  140  A    between atoms: _345  and  _348
REMARK  141  A    between atoms: _348  and  _349
REMARK  142  A    between atoms: _352  and  _354
REMARK  143  A    between atoms: _354  and  _355
REMARK  144  A    between atoms: _357  and  _359
REMARK  145  A    between atoms: _359  and  _360
REMARK  146  A    between atoms: _363  and  _365
REMARK  147  A    between atoms: _365  and  _366
REMARK  148  A    between atoms: _365  and  _368
REMARK  149  A    between atoms: _368  and  _369
REMARK  150  A    between atoms: _372  and  _374
REMARK  151  A    between atoms: _374  and  _375
REMARK  152  A    between atoms: _374  and  _377
REMARK  153  A    between atoms: _377  and  _378
REMARK  154  A    between atoms: _381  and  _383
REMARK  155  A    between atoms: _383  and  _384
REMARK  156  A    between atoms: _383  and  _386
REMARK  157  A    between atoms: _386  and  _387
REMARK  158  A    between atoms: _390  and  _392
REMARK  159  A    between atoms: _392  and  _393
REMARK  160  A    between atoms: _392  and  _395
REMARK  161  A    between atoms: _398  and  _400
REMARK  162  A    between atoms: _400  and  _401
REMARK  163  A    between atoms: _400  and  _403
REMARK  164  A    between atoms: _403  and  _404
REMARK  165  A    between atoms: _407  and  _409
REMARK  166  A    between atoms: _409  and  _410
REMARK  167  A    between atoms: _409  and  _412
REMARK  168  A    between atoms: _412  and  _413
REMARK  169  A    between atoms: _413  and  _414
REMARK  170  A    between atoms: _414  and  _415
REMARK  171  A    between atoms: _415  and  _416
REMARK  172  A    between atoms: _420  and  _422
REMARK  173  A    between atoms: _422  and  _423
REMARK  174  A    between atoms: _422  and  _425
REMARK  175  A    between atoms: _425  and  _426
REMARK  176  A    between atoms: _426  and  _427
REMARK  177  A    between atoms: _429  and  _431
REMARK  178  A    between atoms: _431  and  _432
REMARK  179  A    between atoms: _431  and  _434
REMARK  180  A    between atoms: _434  and  _435
REMARK  181  A    between atoms: _438  and  _440
REMARK  182  A    between atoms: _440  and  _441
REMARK  183  A    between atoms: _443  and  _445
REMARK  184  A    between atoms: _445  and  _446
REMARK  185  A    between atoms: _448  and  _450
REMARK  186  A    between atoms: _450  and  _451
REMARK  187  A    between atoms: _450  and  _453
REMARK  188  A    between atoms: _453  and  _454
REMARK  189  A    between atoms: _457  and  _459
REMARK  190  A    between atoms: _459  and  _460
REMARK  191  A    between atoms: _462  and  _464
REMARK  192  A    between atoms: _464  and  _465
REMARK  193  A    between atoms: _467  and  _469
REMARK  194  A    between atoms: _469  and  _470
REMARK  195  A    between atoms: _469  and  _472
REMARK  196  A    between atoms: _472  and  _473
REMARK  197  A    between atoms: _479  and  _481
REMARK  198  A    between atoms: _481  and  _482
REMARK  199  A    between atoms: _481  and  _484
REMARK  200  A    between atoms: _487  and  _489
REMARK  201  A    between atoms: _489  and  _490
REMARK  202  A    between atoms: _489  and  _492
REMARK  203  A    between atoms: _495  and  _497
REMARK  204  A    between atoms: _497  and  _498
REMARK  205  A    between atoms: _497  and  _500
REMARK  206  A    between atoms: _500  and  _501
REMARK  207  A    between atoms: _504  and  _506
REMARK  208  A    between atoms: _506  and  _507
REMARK  209  A    between atoms: _506  and  _509
REMARK  210  A    between atoms: _509  and  _510
REMARK  211  A    between atoms: _514  and  _515
REMARK  212  A    between atoms: _520  and  _522
REMARK  213  A    between atoms: _522  and  _523
REMARK  214  A    between atoms: _522  and  _525
REMARK  215  A    between atoms: _528  and  _530
REMARK  216  A    between atoms: _530  and  _531
REMARK  217  A    between atoms: _530  and  _533
REMARK  218  A    between atoms: _533  and  _534
REMARK  219  A    between atoms: _539  and  _541
REMARK  220  A    between atoms: _541  and  _542
REMARK  221  A    between atoms: _541  and  _544
REMARK  222  A    between atoms: _544  and  _545
REMARK  223  A    between atoms: _548  and  _550
REMARK  224  A    between atoms: _550  and  _551
REMARK  225  A    between atoms: _550  and  _553
REMARK  226  A    between atoms: _553  and  _554
REMARK  227  A    between atoms: _557  and  _559
REMARK  228  A    between atoms: _559  and  _560
REMARK  229  A    between atoms: _562  and  _564
REMARK  230  A    between atoms: _564  and  _565
REMARK  231  A    between atoms: _564  and  _567
REMARK  232  A    between atoms: _567  and  _568
REMARK  233  A    between atoms: _568  and  _569
REMARK  234  A    between atoms: _569  and  _570
REMARK  235  A    between atoms: _579  and  _581
REMARK  236  A    between atoms: _581  and  _582
REMARK  237  A    between atoms: _581  and  _584
REMARK  238  A    between atoms: _584  and  _585
REMARK                            x       y       z     vdW  Elec       q    Type
REMARK                         _______ _______ _______ _____ _____    ______ ____
ROOT
ATOM      1  C   GLY A   5       7.725  23.708  17.401  0.00  0.00    +0.243 C 
ATOM      2  N   ILE A   6       8.963  24.006  17.719  0.00  0.00    -0.297 N 
ATOM      3  H   ILE A   6       9.686  23.268  17.839  0.00  0.00    +0.150 HD
ATOM      4  O   GLY A   5       6.789  24.506  17.314  0.00  0.00    -0.273 OA
ENDROOT
BRANCH   1   5
ATOM      5  CA  GLY A   5       7.532  22.234  17.145  0.00  0.00    +0.176 C 
BRANCH   5   8
ATOM      6  C   GLY A   4       5.774  20.932  16.120  0.00  0.00    +0.243 C 
ATOM      7  O   GLY A   4       6.112  19.899  16.718  0.00  0.00    -0.273 OA
ATOM      8  N   GLY A   5       6.375  22.098  16.279  0.00  0.00    -0.295 N 
ATOM      9  H   GLY A   5       6.013  22.933  15.775  0.00  0.00    +0.150 HD
BRANCH   6  10
ATOM     10  CA  GLY A   4       4.619  20.990  15.143  0.00  0.00    +0.176 C 
BRANCH  10  12
ATOM     11  C   ILE A   3       4.312  19.704  13.144  0.00  0.00    +0.241 C 
ATOM     12  N   GLY A   4       4.479  19.721  14.463  0.00  0.00    -0.295 N 
ATOM     13  H   GLY A   4       4.509  18.831  15.000  0.00  0.00    +0.150 HD
ATOM     14  O   ILE A   3       4.443  20.676  12.420  0.00  0.00    -0.273 OA
BRANCH  11  15
ATOM     15  CA  ILE A   3       3.892  18.363  12.577  0.00  0.00    +0.149 C 
BRANCH  15  18
ATOM     16  C   MET A   2       1.834  18.050  11.370  0.00  0.00    +0.241 C 
ATOM     17  O   MET A   2       1.389  17.247  12.215  0.00  0.00    -0.273 OA
ATOM     18  N   ILE A   3       3.040  18.615  11.406  0.00  0.00    -0.297 N 
ATOM     19  H   ILE A   3       3.370  19.219  10.626  0.00  0.00    +0.150 HD
BRANCH  16  20
ATOM     20  CA  MET A   2       0.935  18.431  10.208  0.00  0.00    +0.149 C 
BRANCH  20  22
ATOM     21  C   LYS A   1       0.675  16.748   8.459  0.00  0.00    +0.238 C 
ATOM     22  N   MET A   2       0.346  17.215   9.654  0.00  0.00    -0.297 N 
ATOM     23  H   MET A   2      -0.357  16.697  10.218  0.00  0.00    +0.150 HD
ATOM     24  O   LYS A   1       1.359  17.347   7.645  0.00  0.00    -0.274 OA
BRANCH  21  25
ATOM     25  CA  LYS A   1       0.208  15.361   8.049  0.00  0.00    +0.145 C 
BRANCH  25  26
ATOM     26  N   LYS A   1       0.080  15.307   6.597  0.00  0.00    -0.238 NA
ATOM     27  H   LYS A   1       0.723  15.870   6.004  0.00  0.00    +0.142 HD
ENDBRANCH  25  26
BRANCH  25  28
ATOM     28  CB  LYS A   1       1.223  14.316   8.510  0.00  0.00    +0.026 C 
BRANCH  28  29
ATOM     29  CG  LYS A   1       1.332  14.106  10.015  0.00  0.00    -0.000 C 
BRANCH  29  30
ATOM     30  CD  LYS A   1       2.243  12.928  10.288  0.00  0.00    -0.024 C 
BRANCH  30  31
ATOM     31  CE  LYS A   1       2.471  12.657  11.751  0.00  0.00    -0.086 C 
BRANCH  31  32
ATOM     32  NZ  LYS A   1       1.222  12.719  12.537  0.00  0.00    +0.380 N 
ATOM     33  HZ1 LYS A   1       1.433  12.525  13.537  0.00  0.00    -0.089 HD
ATOM     34  HZ2 LYS A   1       0.804  13.667  12.447  0.00  0.00    -0.089 HD
ATOM     35  HZ3 LYS A   1       0.553  12.008  12.179  0.00  0.00    -0.089 HD
ENDBRANCH  31  32
ENDBRANCH  30  31
ENDBRANCH  29  30
ENDBRANCH  28  29
ENDBRANCH  25  28
ENDBRANCH  21  25
ENDBRANCH  20  22
BRANCH  20  36
ATOM     36  CB  MET A   2      -0.145  19.416  10.682  0.00  0.00    +0.041 C 
BRANCH  36  37
ATOM     37  CG  MET A   2      -0.922  20.001   9.496  0.00  0.00    +0.060 C 
BRANCH  37  38
ATOM     38  SD  MET A   2       0.001  21.465   8.935  0.00  0.00    -0.139 S 
ATOM     39  CE  MET A   2      -0.906  22.712   9.862  0.00  0.00    +0.069 C 
ENDBRANCH  37  38
ENDBRANCH  36  37
ENDBRANCH  20  36
ENDBRANCH  16  20
ENDBRANCH  15  18
BRANCH  15  40
ATOM     40  CB  ILE A   3       5.111  17.531  12.243  0.00  0.00    +0.027 C 
ATOM     41  CG2 ILE A   3       4.679  16.105  11.932  0.00  0.00    +0.002 C 
BRANCH  40  42
ATOM     42  CG1 ILE A   3       5.935  18.107  11.106  0.00  0.00    +0.002 C 
ATOM     43  CD1 ILE A   3       7.247  17.379  10.893  0.00  0.00    +0.000 C 
ENDBRANCH  40  42
ENDBRANCH  15  40
ENDBRANCH  11  15
ENDBRANCH  10  12
ENDBRANCH   6  10
ENDBRANCH   5   8
ENDBRANCH   1   5
BRANCH   2  44
ATOM     44  CA  ILE A   6       9.280  25.428  17.897  0.00  0.00    +0.149 C 
BRANCH  44  45
ATOM     45  C   ILE A   6       8.964  26.146  16.598  0.00  0.00    +0.241 C 
ATOM     46  N   GLY A   7       8.214  27.237  16.709  0.00  0.00    -0.295 N 
ATOM     47  H   GLY A   7       7.848  27.503  17.645  0.00  0.00    +0.150 HD
ATOM     48  O   ILE A   6       9.352  25.777  15.493  0.00  0.00    -0.273 OA
BRANCH  46  49
ATOM     49  CA  GLY A   7       7.892  28.062  15.576  0.00  0.00    +0.176 C 
BRANCH  49  50
ATOM     50  C   GLY A   7       6.589  27.607  14.967  0.00  0.00    +0.243 C 
ATOM     51  N   GLY A   8       5.967  26.547  15.498  0.00  0.00    -0.295 N 
ATOM     52  H   GLY A   8       6.396  26.013  16.281  0.00  0.00    +0.150 HD
ATOM     53  O   GLY A   7       6.178  28.251  14.012  0.00  0.00    -0.273 OA
BRANCH  51  54
ATOM     54  CA  GLY A   8       4.677  26.162  14.952  0.00  0.00    +0.176 C 
BRANCH  54  55
ATOM     55  C   GLY A   8       4.635  24.917  14.101  0.00  0.00    +0.243 C 
ATOM     56  O   GLY A   8       5.455  24.028  14.245  0.00  0.00    -0.273 OA
ATOM     57  N   PHE A   9       3.670  24.817  13.183  0.00  0.00    -0.297 N 
ATOM     58  H   PHE A   9       3.067  25.641  12.988  0.00  0.00    +0.150 HD
BRANCH  57  59
ATOM     59  CA  PHE A   9       3.445  23.588  12.454  0.00  0.00    +0.153 C 
BRANCH  59  60
ATOM     60  C   PHE A   9       3.820  23.710  10.983  0.00  0.00    +0.241 C 
ATOM     61  O   PHE A   9       3.766  24.821  10.470  0.00  0.00    -0.273 OA
ATOM     62  N   VAL A  10       4.148  22.568  10.410  0.00  0.00    -0.298 N 
ATOM     63  H   VAL A  10       4.133  21.715  11.005  0.00  0.00    +0.150 HD
BRANCH  62  64
ATOM     64  CA  VAL A  10       4.529  22.401   9.018  0.00  0.00    +0.137 C 
BRANCH  64  65
ATOM     65  CB  VAL A  10       6.052  22.203   8.892  0.00  0.00    +0.026 C 
ATOM     66  CG2 VAL A  10       6.780  23.444   9.389  0.00  0.00    +0.002 C 
ATOM     67  CG1 VAL A  10       6.454  21.893   7.460  0.00  0.00    +0.002 C 
ENDBRANCH  64  65
BRANCH  64  68
ATOM     68  C   VAL A  10       3.783  21.218   8.412  0.00  0.00    +0.227 C 
ATOM     69  O   VAL A  10       3.646  20.177   9.061  0.00  0.00    -0.286 OA
ENDBRANCH  64  68
ENDBRANCH  62  64
ENDBRANCH  59  60
BRANCH  59  70
ATOM     70  CB  PHE A   9       1.968  23.216  12.502  0.00  0.00    +0.055 C 
BRANCH  70  71
ATOM     71  CG  PHE A   9       1.610  22.631  13.853  0.00  0.00    -0.020 A 
ATOM     72  CD2 PHE A   9       1.441  23.463  14.944  0.00  0.00    -0.004 A 
ATOM     73  CE2 PHE A   9       1.086  22.893  16.141  0.00  0.00    -0.000 A 
ATOM     74  CZ  PHE A   9       0.903  21.536  16.286  0.00  0.00    -0.000 A 
ATOM     75  CE1 PHE A   9       1.100  20.706  15.216  0.00  0.00    -0.000 A 
ATOM     76  CD1 PHE A   9       1.447  21.269  13.989  0.00  0.00    -0.004 A 
ENDBRANCH  70  71
ENDBRANCH  59  70
ENDBRANCH  57  59
ENDBRANCH  54  55
ENDBRANCH  51  54
ENDBRANCH  49  50
ENDBRANCH  46  49
ENDBRANCH  44  45
BRANCH  44  77
ATOM     77  CB  ILE A   6      10.745  25.581  18.347  0.00  0.00    +0.027 C 
ATOM     78  CG2 ILE A   6      11.212  27.027  18.353  0.00  0.00    +0.002 C 
BRANCH  77  79
ATOM     79  CG1 ILE A   6      11.042  24.954  19.725  0.00  0.00    +0.002 C 
ATOM     80  CD1 ILE A   6      10.262  25.610  20.846  0.00  0.00    +0.000 C 
ENDBRANCH  77  79
ENDBRANCH  44  77
ENDBRANCH   2  44
TORSDOF 35
REMARK  Name = ../refined-set-2016/3nuj/3nuj_pocket.pdb
REMARK  238 active torsions:
REMARK  status: ('A' for Active; 'I' for Inactive)
REMARK    1  A    between atoms: _1  and  _3
REMARK    2  A    between atoms: _3  and  _4
REMARK    3  A    between atoms: _3  and  _6
REMARK    4  A    between atoms: _6  and  _7
REMARK    5  A    between atoms: _7  and  _8
REMARK    6  A    between atoms: _8  and  _9
REMARK    7  A    between atoms: _18  and  _20
REMARK    8  A    between atoms: _20  and  _21
REMARK    9  A    between atoms: _20  and  _23
REMARK   10  A    between atoms: _23  and  _24
REMARK   11  A    between atoms: _27  and  _29
REMARK   12  A    between atoms: _29  and  _30
REMARK   13  A    between atoms: _29  and  _32
REMARK   14  A    between atoms: _32  and  _33
REMARK   15  A    between atoms: _36  and  _38
REMARK   16  A    between atoms: _38  and  _39
REMARK   17  A    between atoms: _38  and  _41
REMARK   18  A    between atoms: _41  and  _42
REMARK   19  A    between atoms: _45  and  _47
REMARK   20  A    between atoms: _47  and  _48
REMARK   21  A    between atoms: _47  and  _50
REMARK   22  A    between atoms: _50  and  _51
REMARK   23  A    between atoms: _54  and  _56
REMARK   24  A    between atoms: _56  and  _57
REMARK   25  A    between atoms: _59  and  _61
REMARK   26  A    between atoms: _61  and  _62
REMARK   27  A    between atoms: _65  and  _67
REMARK   28  A    between atoms: _67  and  _68
REMARK   29  A    between atoms: _67  and  _70
REMARK   30  A    between atoms: _70  and  _71
REMARK   31  A    between atoms: _74  and  _76
REMARK   32  A    between atoms: _76  and  _77
REMARK   33  A    between atoms: _76  and  _79
REMARK   34  A    between atoms: _79  and  _80
REMARK   35  A    between atoms: _83  and  _85
REMARK   36  A    between atoms: _85  and  _86
REMARK   37  A    between atoms: _85  and  _88
REMARK   38  A    between atoms: _88  and  _89
REMARK   39  A    between atoms: _92  and  _94
REMARK   40  A    between atoms: _94  and  _95
REMARK   41  A    between atoms: _94  and  _97
REMARK   42  A    between atoms: _100  and  _102
REMARK   43  A    between atoms: _102  and  _103
REMARK   44  A    between atoms: _102  and  _105
REMARK   45  A    between atoms: _105  and  _106
REMARK   46  A    between atoms: _109  and  _111
REMARK   47  A    between atoms: _111  and  _112
REMARK   48  A    between atoms: _111  and  _114
REMARK   49  A    between atoms: _114  and  _115
REMARK   50  A    between atoms: _115  and  _116
REMARK   51  A    between atoms: _116  and  _117
REMARK   52  A    between atoms: _117  and  _118
REMARK   53  A    between atoms: _122  and  _124
REMARK   54  A    between atoms: _124  and  _125
REMARK   55  A    between atoms: _124  and  _127
REMARK   56  A    between atoms: _127  and  _128
REMARK   57  A    between atoms: _128  and  _129
REMARK   58  A    between atoms: _131  and  _133
REMARK   59  A    between atoms: _133  and  _134
REMARK   60  A    between atoms: _133  and  _136
REMARK   61  A    between atoms: _136  and  _137
REMARK   62  A    between atoms: _140  and  _142
REMARK   63  A    between atoms: _142  and  _143
REMARK   64  A    between atoms: _145  and  _147
REMARK   65  A    between atoms: _147  and  _148
REMARK   66  A    between atoms: _150  and  _152
REMARK   67  A    between atoms: _152  and  _153
REMARK   68  A    between atoms: _152  and  _155
REMARK   69  A    between atoms: _155  and  _156
REMARK   70  A    between atoms: _159  and  _161
REMARK   71  A    between atoms: _161  and  _162
REMARK   72  A    between atoms: _164  and  _166
REMARK   73  A    between atoms: _166  and  _167
REMARK   74  A    between atoms: _169  and  _171
REMARK   75  A    between atoms: _171  and  _172
REMARK   76  A    between atoms: _171  and  _174
REMARK   77  A    between atoms: _174  and  _175
REMARK   78  A    between atoms: _181  and  _183
REMARK   79  A    between atoms: _183  and  _184
REMARK   80  A    between atoms: _183  and  _186
REMARK   81  A    between atoms: _189  and  _191
REMARK   82  A    between atoms: _191  and  _192
REMARK   83  A    between atoms: _191  and  _194
REMARK   84  A    between atoms: _197  and  _199
REMARK   85  A    between atoms: _199  and  _200
REMARK   86  A    between atoms: _199  and  _202
REMARK   87  A    between atoms: _202  and  _203
REMARK   88  A    between atoms: _207  and  _208
REMARK   89  A    between atoms: _213  and  _215
REMARK   90  A    between atoms: _215  and  _216
REMARK   91  A    between atoms: _215  and  _218
REMARK   92  A    between atoms: _218  and  _219
REMARK   93  A    between atoms: _223  and  _224
REMARK   94  A    between atoms: _229  and  _231
REMARK   95  A    between atoms: _231  and  _232
REMARK   96  A    between atoms: _231  and  _234
REMARK   97  A    between atoms: _237  and  _239
REMARK   98  A    between atoms: _239  and  _240
REMARK   99  A    between atoms: _239  and  _242
REMARK  100  A    between atoms: _242  and  _243
REMARK  101  A    between atoms: _248  and  _250
REMARK  102  A    between atoms: _250  and  _251
REMARK  103  A    between atoms: _250  and  _253
REMARK  104  A    between atoms: _253  and  _254
REMARK  105  A    between atoms: _257  and  _259
REMARK  106  A    between atoms: _259  and  _260
REMARK  107  A    between atoms: _259  and  _262
REMARK  108  A    between atoms: _262  and  _263
REMARK  109  A    between atoms: _266  and  _268
REMARK  110  A    between atoms: _268  and  _269
REMARK  111  A    between atoms: _271  and  _273
REMARK  112  A    between atoms: _273  and  _274
REMARK  113  A    between atoms: _273  and  _276
REMARK  114  A    between atoms: _277  and  _278
REMARK  115  A    between atoms: _278  and  _279
REMARK  116  A    between atoms: _288  and  _290
REMARK  117  A    between atoms: _290  and  _291
REMARK  118  A    between atoms: _290  and  _293
REMARK  119  A    between atoms: _293  and  _294
REMARK  120  A    between atoms: _299  and  _301
REMARK  121  A    between atoms: _301  and  _302
REMARK  122  A    between atoms: _301  and  _304
REMARK  123  A    between atoms: _304  and  _305
REMARK  124  A    between atoms: _305  and  _306
REMARK  125  A    between atoms: _306  and  _307
REMARK  126  A    between atoms: _316  and  _318
REMARK  127  A    between atoms: _318  and  _319
REMARK  128  A    between atoms: _318  and  _321
REMARK  129  A    between atoms: _321  and  _322
REMARK  130  A    between atoms: _325  and  _327
REMARK  131  A    between atoms: _327  and  _328
REMARK  132  A    between atoms: _327  and  _330
REMARK  133  A    between atoms: _330  and  _331
REMARK  134  A    between atoms: _334  and  _336
REMARK  135  A    between atoms: _336  and  _337
REMARK  136  A    between atoms: _336  and  _339
REMARK  137  A    between atoms: _339  and  _340
REMARK  138  A    between atoms: _343  and  _345
REMARK  139  A    between atoms: _345  and  _346
REMARK  140  A    between atoms: _345  and  _348
REMARK  141  A    between atoms: _348  and  _349
REMARK  142  A    between atoms: _352  and  _354
REMARK  143  A    between atoms: _354  and  _355
REMARK  144  A    between atoms: _357  and  _359
REMARK  145  A    between atoms: _359  and  _360
REMARK  146  A    between atoms: _363  and  _365
REMARK  147  A    between atoms: _365  and  _366
REMARK  148  A    between atoms: _365  and  _368
REMARK  149  A    between atoms: _368  and  _369
REMARK  150  A    between atoms: _372  and  _374
REMARK  151  A    between atoms: _374  and  _375
REMARK  152  A    between atoms: _374  and  _377
REMARK  153  A    between atoms: _377  and  _378
REMARK  154  A    between atoms: _381  and  _383
REMARK  155  A    between atoms: _383  and  _384
REMARK  156  A    between atoms: _383  and  _386
REMARK  157  A    between atoms: _386  and  _387
REMARK  158  A    between atoms: _390  and  _392
REMARK  159  A    between atoms: _392  and  _393
REMARK  160  A    between atoms: _392  and  _395
REMARK  161  A    between atoms: _398  and  _400
REMARK  162  A    between atoms: _400  and  _401
REMARK  163  A    between atoms: _400  and  _403
REMARK  164  A    between atoms: _403  and  _404
REMARK  165  A    between atoms: _407  and  _409
REMARK  166  A    between atoms: _409  and  _410
REMARK  167  A    between atoms: _409  and  _412
REMARK  168  A    between atoms: _412  and  _413
REMARK  169  A    between atoms: _413  and  _414
REMARK  170  A    between atoms: _414  and  _415
REMARK  171  A    between atoms: _415  and  _416
REMARK  172  A    between atoms: _420  and  _422
REMARK  173  A    between atoms: _422  and  _423
REMARK  174  A    between atoms: _422  and  _425
REMARK  175  A    between atoms: _425  and  _426
REMARK  176  A    between atoms: _426  and  _427
REMARK  177  A    between atoms: _429  and  _431
REMARK  178  A    between atoms: _431  and  _432
REMARK  179  A    between atoms: _431  and  _434
REMARK  180  A    between atoms: _434  and  _435
REMARK  181  A    between atoms: _438  and  _440
REMARK  182  A    between atoms: _440  and  _441
REMARK  183  A    between atoms: _443  and  _445
REMARK  184  A    between atoms: _445  and  _446
REMARK  185  A    between atoms: _448  and  _450
REMARK  186  A    between atoms: _450  and  _451
REMARK  187  A    between atoms: _450  and  _453
REMARK  188  A    between atoms: _453  and  _454
REMARK  189  A    between atoms: _457  and  _459
REMARK  190  A    between atoms: _459  and  _460
REMARK  191  A    between atoms: _462  and  _464
REMARK  192  A    between atoms: _464  and  _465
REMARK  193  A    between atoms: _467  and  _469
REMARK  194  A    between atoms: _469  and  _470
REMARK  195  A    between atoms: _469  and  _472
REMARK  196  A    between atoms: _472  and  _473
REMARK  197  A    between atoms: _479  and  _481
REMARK  198  A    between atoms: _481  and  _482
REMARK  199  A    between atoms: _481  and  _484
REMARK  200  A    between atoms: _487  and  _489
REMARK  201  A    between atoms: _489  and  _490
REMARK  202  A    between atoms: _489  and  _492
REMARK  203  A    between atoms: _495  and  _497
REMARK  204  A    between atoms: _497  and  _498
REMARK  205  A    between atoms: _497  and  _500
REMARK  206  A    between atoms: _500  and  _501
REMARK  207  A    between atoms: _504  and  _506
REMARK  208  A    between atoms: _506  and  _507
REMARK  209  A    between atoms: _506  and  _509
REMARK  210  A    between atoms: _509  and  _510
REMARK  211  A    between atoms: _514  and  _515
REMARK  212  A    between atoms: _520  and  _522
REMARK  213  A    between atoms: _522  and  _523
REMARK  214  A    between atoms: _522  and  _525
REMARK  215  A    between atoms: _528  and  _530
REMARK  216  A    between atoms: _530  and  _531
REMARK  217  A    between atoms: _530  and  _533
REMARK  218  A    between atoms: _533  and  _534
REMARK  219  A    between atoms: _539  and  _541
REMARK  220  A    between atoms: _541  and  _542
REMARK  221  A    between atoms: _541  and  _544
REMARK  222  A    between atoms: _544  and  _545
REMARK  223  A    between atoms: _548  and  _550
REMARK  224  A    between atoms: _550  and  _551
REMARK  225  A    between atoms: _550  and  _553
REMARK  226  A    between atoms: _553  and  _554
REMARK  227  A    between atoms: _557  and  _559
REMARK  228  A    between atoms: _559  and  _560
REMARK  229  A    between atoms: _562  and  _564
REMARK  230  A    between atoms: _564  and  _565
REMARK  231  A    between atoms: _564  and  _567
REMARK  232  A    between atoms: _567  and  _568
REMARK  233  A    between atoms: _568  and  _569
REMARK  234  A    between atoms: _569  and  _570
REMARK  235  A    between atoms: _579  and  _581
REMARK  236  A    between atoms: _581  and  _582
REMARK  237  A    between atoms: _581  and  _584
REMARK  238  A    between atoms: _584  and  _585
REMARK                            x       y       z     vdW  Elec       q    Type
REMARK                         _______ _______ _______ _____ _____    ______ ____
ROOT
ATOM      1  CA  VAL A   1       4.393  17.201   5.327  0.00  0.00    +0.133 C 
ENDROOT
BRANCH   1   2
ATOM      2  CB  VAL A   1       5.297  16.583   6.419  0.00  0.00    +0.023 C 
ATOM      3  CG2 VAL A   1       4.479  15.784   7.429  0.00  0.00    +0.002 C 
ATOM      4  CG1 VAL A   1       6.123  17.645   7.104  0.00  0.00    +0.002 C 
ENDBRANCH   1   2
BRANCH   1   5
ATOM      5  N   VAL A   1       3.502  18.196   5.908  0.00  0.00    -0.239 NA
ATOM      6  H   VAL A   1       2.707  17.855   6.485  0.00  0.00    +0.142 HD
ENDBRANCH   1   5
BRANCH   1   7
ATOM      7  C   VAL A   1       3.584  16.099   4.652  0.00  0.00    +0.224 C 
ATOM      8  O   VAL A   1       2.360  15.956   4.867  0.00  0.00    -0.287 OA
ENDBRANCH   1   7
TORSDOF 3
REMARK  Name = ../refined-set-2016/3nuj/3nuj_pocket.pdb
REMARK  238 active torsions:
REMARK  status: ('A' for Active; 'I' for Inactive)
REMARK    1  A    between atoms: _1  and  _3
REMARK    2  A    between atoms: _3  and  _4
REMARK    3  A    between atoms: _3  and  _6
REMARK    4  A    between atoms: _6  and  _7
REMARK    5  A    between atoms: _7  and  _8
REMARK    6  A    between atoms: _8  and  _9
REMARK    7  A    between atoms: _18  and  _20
REMARK    8  A    between atoms: _20  and  _21
REMARK    9  A    between atoms: _20  and  _23
REMARK   10  A    between atoms: _23  and  _24
REMARK   11  A    between atoms: _27  and  _29
REMARK   12  A    between atoms: _29  and  _30
REMARK   13  A    between atoms: _29  and  _32
REMARK   14  A    between atoms: _32  and  _33
REMARK   15  A    between atoms: _36  and  _38
REMARK   16  A    between atoms: _38  and  _39
REMARK   17  A    between atoms: _38  and  _41
REMARK   18  A    between atoms: _41  and  _42
REMARK   19  A    between atoms: _45  and  _47
REMARK   20  A    between atoms: _47  and  _48
REMARK   21  A    between atoms: _47  and  _50
REMARK   22  A    between atoms: _50  and  _51
REMARK   23  A    between atoms: _54  and  _56
REMARK   24  A    between atoms: _56  and  _57
REMARK   25  A    between atoms: _59  and  _61
REMARK   26  A    between atoms: _61  and  _62
REMARK   27  A    between atoms: _65  and  _67
REMARK   28  A    between atoms: _67  and  _68
REMARK   29  A    between atoms: _67  and  _70
REMARK   30  A    between atoms: _70  and  _71
REMARK   31  A    between atoms: _74  and  _76
REMARK   32  A    between atoms: _76  and  _77
REMARK   33  A    between atoms: _76  and  _79
REMARK   34  A    between atoms: _79  and  _80
REMARK   35  A    between atoms: _83  and  _85
REMARK   36  A    between atoms: _85  and  _86
REMARK   37  A    between atoms: _85  and  _88
REMARK   38  A    between atoms: _88  and  _89
REMARK   39  A    between atoms: _92  and  _94
REMARK   40  A    between atoms: _94  and  _95
REMARK   41  A    between atoms: _94  and  _97
REMARK   42  A    between atoms: _100  and  _102
REMARK   43  A    between atoms: _102  and  _103
REMARK   44  A    between atoms: _102  and  _105
REMARK   45  A    between atoms: _105  and  _106
REMARK   46  A    between atoms: _109  and  _111
REMARK   47  A    between atoms: _111  and  _112
REMARK   48  A    between atoms: _111  and  _114
REMARK   49  A    between atoms: _114  and  _115
REMARK   50  A    between atoms: _115  and  _116
REMARK   51  A    between atoms: _116  and  _117
REMARK   52  A    between atoms: _117  and  _118
REMARK   53  A    between atoms: _122  and  _124
REMARK   54  A    between atoms: _124  and  _125
REMARK   55  A    between atoms: _124  and  _127
REMARK   56  A    between atoms: _127  and  _128
REMARK   57  A    between atoms: _128  and  _129
REMARK   58  A    between atoms: _131  and  _133
REMARK   59  A    between atoms: _133  and  _134
REMARK   60  A    between atoms: _133  and  _136
REMARK   61  A    between atoms: _136  and  _137
REMARK   62  A    between atoms: _140  and  _142
REMARK   63  A    between atoms: _142  and  _143
REMARK   64  A    between atoms: _145  and  _147
REMARK   65  A    between atoms: _147  and  _148
REMARK   66  A    between atoms: _150  and  _152
REMARK   67  A    between atoms: _152  and  _153
REMARK   68  A    between atoms: _152  and  _155
REMARK   69  A    between atoms: _155  and  _156
REMARK   70  A    between atoms: _159  and  _161
REMARK   71  A    between atoms: _161  and  _162
REMARK   72  A    between atoms: _164  and  _166
REMARK   73  A    between atoms: _166  and  _167
REMARK   74  A    between atoms: _169  and  _171
REMARK   75  A    between atoms: _171  and  _172
REMARK   76  A    between atoms: _171  and  _174
REMARK   77  A    between atoms: _174  and  _175
REMARK   78  A    between atoms: _181  and  _183
REMARK   79  A    between atoms: _183  and  _184
REMARK   80  A    between atoms: _183  and  _186
REMARK   81  A    between atoms: _189  and  _191
REMARK   82  A    between atoms: _191  and  _192
REMARK   83  A    between atoms: _191  and  _194
REMARK   84  A    between atoms: _197  and  _199
REMARK   85  A    between atoms: _199  and  _200
REMARK   86  A    between atoms: _199  and  _202
REMARK   87  A    between atoms: _202  and  _203
REMARK   88  A    between atoms: _207  and  _208
REMARK   89  A    between atoms: _213  and  _215
REMARK   90  A    between atoms: _215  and  _216
REMARK   91  A    between atoms: _215  and  _218
REMARK   92  A    between atoms: _218  and  _219
REMARK   93  A    between atoms: _223  and  _224
REMARK   94  A    between atoms: _229  and  _231
REMARK   95  A    between atoms: _231  and  _232
REMARK   96  A    between atoms: _231  and  _234
REMARK   97  A    between atoms: _237  and  _239
REMARK   98  A    between atoms: _239  and  _240
REMARK   99  A    between atoms: _239  and  _242
REMARK  100  A    between atoms: _242  and  _243
REMARK  101  A    between atoms: _248  and  _250
REMARK  102  A    between atoms: _250  and  _251
REMARK  103  A    between atoms: _250  and  _253
REMARK  104  A    between atoms: _253  and  _254
REMARK  105  A    between atoms: _257  and  _259
REMARK  106  A    between atoms: _259  and  _260
REMARK  107  A    between atoms: _259  and  _262
REMARK  108  A    between atoms: _262  and  _263
REMARK  109  A    between atoms: _266  and  _268
REMARK  110  A    between atoms: _268  and  _269
REMARK  111  A    between atoms: _271  and  _273
REMARK  112  A    between atoms: _273  and  _274
REMARK  113  A    between atoms: _273  and  _276
REMARK  114  A    between atoms: _277  and  _278
REMARK  115  A    between atoms: _278  and  _279
REMARK  116  A    between atoms: _288  and  _290
REMARK  117  A    between atoms: _290  and  _291
REMARK  118  A    between atoms: _290  and  _293
REMARK  119  A    between atoms: _293  and  _294
REMARK  120  A    between atoms: _299  and  _301
REMARK  121  A    between atoms: _301  and  _302
REMARK  122  A    between atoms: _301  and  _304
REMARK  123  A    between atoms: _304  and  _305
REMARK  124  A    between atoms: _305  and  _306
REMARK  125  A    between atoms: _306  and  _307
REMARK  126  A    between atoms: _316  and  _318
REMARK  127  A    between atoms: _318  and  _319
REMARK  128  A    between atoms: _318  and  _321
REMARK  129  A    between atoms: _321  and  _322
REMARK  130  A    between atoms: _325  and  _327
REMARK  131  A    between atoms: _327  and  _328
REMARK  132  A    between atoms: _327  and  _330
REMARK  133  A    between atoms: _330  and  _331
REMARK  134  A    between atoms: _334  and  _336
REMARK  135  A    between atoms: _336  and  _337
REMARK  136  A    between atoms: _336  and  _339
REMARK  137  A    between atoms: _339  and  _340
REMARK  138  A    between atoms: _343  and  _345
REMARK  139  A    between atoms: _345  and  _346
REMARK  140  A    between atoms: _345  and  _348
REMARK  141  A    between atoms: _348  and  _349
REMARK  142  A    between atoms: _352  and  _354
REMARK  143  A    between atoms: _354  and  _355
REMARK  144  A    between atoms: _357  and  _359
REMARK  145  A    between atoms: _359  and  _360
REMARK  146  A    between atoms: _363  and  _365
REMARK  147  A    between atoms: _365  and  _366
REMARK  148  A    between atoms: _365  and  _368
REMARK  149  A    between atoms: _368  and  _369
REMARK  150  A    between atoms: _372  and  _374
REMARK  151  A    between atoms: _374  and  _375
REMARK  152  A    between atoms: _374  and  _377
REMARK  153  A    between atoms: _377  and  _378
REMARK  154  A    between atoms: _381  and  _383
REMARK  155  A    between atoms: _383  and  _384
REMARK  156  A    between atoms: _383  and  _386
REMARK  157  A    between atoms: _386  and  _387
REMARK  158  A    between atoms: _390  and  _392
REMARK  159  A    between atoms: _392  and  _393
REMARK  160  A    between atoms: _392  and  _395
REMARK  161  A    between atoms: _398  and  _400
REMARK  162  A    between atoms: _400  and  _401
REMARK  163  A    between atoms: _400  and  _403
REMARK  164  A    between atoms: _403  and  _404
REMARK  165  A    between atoms: _407  and  _409
REMARK  166  A    between atoms: _409  and  _410
REMARK  167  A    between atoms: _409  and  _412
REMARK  168  A    between atoms: _412  and  _413
REMARK  169  A    between atoms: _413  and  _414
REMARK  170  A    between atoms: _414  and  _415
REMARK  171  A    between atoms: _415  and  _416
REMARK  172  A    between atoms: _420  and  _422
REMARK  173  A    between atoms: _422  and  _423
REMARK  174  A    between atoms: _422  and  _425
REMARK  175  A    between atoms: _425  and  _426
REMARK  176  A    between atoms: _426  and  _427
REMARK  177  A    between atoms: _429  and  _431
REMARK  178  A    between atoms: _431  and  _432
REMARK  179  A    between atoms: _431  and  _434
REMARK  180  A    between atoms: _434  and  _435
REMARK  181  A    between atoms: _438  and  _440
REMARK  182  A    between atoms: _440  and  _441
REMARK  183  A    between atoms: _443  and  _445
REMARK  184  A    between atoms: _445  and  _446
REMARK  185  A    between atoms: _448  and  _450
REMARK  186  A    between atoms: _450  and  _451
REMARK  187  A    between atoms: _450  and  _453
REMARK  188  A    between atoms: _453  and  _454
REMARK  189  A    between atoms: _457  and  _459
REMARK  190  A    between atoms: _459  and  _460
REMARK  191  A    between atoms: _462  and  _464
REMARK  192  A    between atoms: _464  and  _465
REMARK  193  A    between atoms: _467  and  _469
REMARK  194  A    between atoms: _469  and  _470
REMARK  195  A    between atoms: _469  and  _472
REMARK  196  A    between atoms: _472  and  _473
REMARK  197  A    between atoms: _479  and  _481
REMARK  198  A    between atoms: _481  and  _482
REMARK  199  A    between atoms: _481  and  _484
REMARK  200  A    between atoms: _487  and  _489
REMARK  201  A    between atoms: _489  and  _490
REMARK  202  A    between atoms: _489  and  _492
REMARK  203  A    between atoms: _495  and  _497
REMARK  204  A    between atoms: _497  and  _498
REMARK  205  A    between atoms: _497  and  _500
REMARK  206  A    between atoms: _500  and  _501
REMARK  207  A    between atoms: _504  and  _506
REMARK  208  A    between atoms: _506  and  _507
REMARK  209  A    between atoms: _506  and  _509
REMARK  210  A    between atoms: _509  and  _510
REMARK  211  A    between atoms: _514  and  _515
REMARK  212  A    between atoms: _520  and  _522
REMARK  213  A    between atoms: _522  and  _523
REMARK  214  A    between atoms: _522  and  _525
REMARK  215  A    between atoms: _528  and  _530
REMARK  216  A    between atoms: _530  and  _531
REMARK  217  A    between atoms: _530  and  _533
REMARK  218  A    between atoms: _533  and  _534
REMARK  219  A    between atoms: _539  and  _541
REMARK  220  A    between atoms: _541  and  _542
REMARK  221  A    between atoms: _541  and  _544
REMARK  222  A    between atoms: _544  and  _545
REMARK  223  A    between atoms: _548  and  _550
REMARK  224  A    between atoms: _550  and  _551
REMARK  225  A    between atoms: _550  and  _553
REMARK  226  A    between atoms: _553  and  _554
REMARK  227  A    between atoms: _557  and  _559
REMARK  228  A    between atoms: _559  and  _560
REMARK  229  A    between atoms: _562  and  _564
REMARK  230  A    between atoms: _564  and  _565
REMARK  231  A    between atoms: _564  and  _567
REMARK  232  A    between atoms: _567  and  _568
REMARK  233  A    between atoms: _568  and  _569
REMARK  234  A    between atoms: _569  and  _570
REMARK  235  A    between atoms: _579  and  _581
REMARK  236  A    between atoms: _581  and  _582
REMARK  237  A    between atoms: _581  and  _584
REMARK  238  A    between atoms: _584  and  _585
REMARK                            x       y       z     vdW  Elec       q    Type
REMARK                         _______ _______ _______ _____ _____    ______ ____
ROOT
ATOM      1  CA  LEU A   1       7.675  12.398   6.518  0.00  0.00    +0.133 C 
ENDROOT
BRANCH   1   2
ATOM      2  N   LEU A   1       8.398  11.200   6.849  0.00  0.00    -0.239 NA
ATOM      3  H   LEU A   1       9.072  11.223   7.641  0.00  0.00    +0.142 HD
ENDBRANCH   1   2
BRANCH   1   4
ATOM      4  C   LEU A   1       8.564  13.267   5.640  0.00  0.00    +0.224 C 
ATOM      5  O   LEU A   1       9.758  13.392   5.920  0.00  0.00    -0.287 OA
ENDBRANCH   1   4
BRANCH   1   6
ATOM      6  CB  LEU A   1       7.328  13.166   7.780  0.00  0.00    +0.025 C 
BRANCH   6   7
ATOM      7  CG  LEU A   1       6.603  12.330   8.853  0.00  0.00    +0.002 C 
ATOM      8  CD2 LEU A   1       6.364  13.170  10.083  0.00  0.00    +0.000 C 
ATOM      9  CD1 LEU A   1       5.279  11.770   8.328  0.00  0.00    +0.000 C 
ENDBRANCH   6   7
ENDBRANCH   1   6
TORSDOF 4
REMARK  Name = ../refined-set-2016/3nuj/3nuj_pocket.pdb
REMARK  238 active torsions:
REMARK  status: ('A' for Active; 'I' for Inactive)
REMARK    1  A    between atoms: _1  and  _3
REMARK    2  A    between atoms: _3  and  _4
REMARK    3  A    between atoms: _3  and  _6
REMARK    4  A    between atoms: _6  and  _7
REMARK    5  A    between atoms: _7  and  _8
REMARK    6  A    between atoms: _8  and  _9
REMARK    7  A    between atoms: _18  and  _20
REMARK    8  A    between atoms: _20  and  _21
REMARK    9  A    between atoms: _20  and  _23
REMARK   10  A    between atoms: _23  and  _24
REMARK   11  A    between atoms: _27  and  _29
REMARK   12  A    between atoms: _29  and  _30
REMARK   13  A    between atoms: _29  and  _32
REMARK   14  A    between atoms: _32  and  _33
REMARK   15  A    between atoms: _36  and  _38
REMARK   16  A    between atoms: _38  and  _39
REMARK   17  A    between atoms: _38  and  _41
REMARK   18  A    between atoms: _41  and  _42
REMARK   19  A    between atoms: _45  and  _47
REMARK   20  A    between atoms: _47  and  _48
REMARK   21  A    between atoms: _47  and  _50
REMARK   22  A    between atoms: _50  and  _51
REMARK   23  A    between atoms: _54  and  _56
REMARK   24  A    between atoms: _56  and  _57
REMARK   25  A    between atoms: _59  and  _61
REMARK   26  A    between atoms: _61  and  _62
REMARK   27  A    between atoms: _65  and  _67
REMARK   28  A    between atoms: _67  and  _68
REMARK   29  A    between atoms: _67  and  _70
REMARK   30  A    between atoms: _70  and  _71
REMARK   31  A    between atoms: _74  and  _76
REMARK   32  A    between atoms: _76  and  _77
REMARK   33  A    between atoms: _76  and  _79
REMARK   34  A    between atoms: _79  and  _80
REMARK   35  A    between atoms: _83  and  _85
REMARK   36  A    between atoms: _85  and  _86
REMARK   37  A    between atoms: _85  and  _88
REMARK   38  A    between atoms: _88  and  _89
REMARK   39  A    between atoms: _92  and  _94
REMARK   40  A    between atoms: _94  and  _95
REMARK   41  A    between atoms: _94  and  _97
REMARK   42  A    between atoms: _100  and  _102
REMARK   43  A    between atoms: _102  and  _103
REMARK   44  A    between atoms: _102  and  _105
REMARK   45  A    between atoms: _105  and  _106
REMARK   46  A    between atoms: _109  and  _111
REMARK   47  A    between atoms: _111  and  _112
REMARK   48  A    between atoms: _111  and  _114
REMARK   49  A    between atoms: _114  and  _115
REMARK   50  A    between atoms: _115  and  _116
REMARK   51  A    between atoms: _116  and  _117
REMARK   52  A    between atoms: _117  and  _118
REMARK   53  A    between atoms: _122  and  _124
REMARK   54  A    between atoms: _124  and  _125
REMARK   55  A    between atoms: _124  and  _127
REMARK   56  A    between atoms: _127  and  _128
REMARK   57  A    between atoms: _128  and  _129
REMARK   58  A    between atoms: _131  and  _133
REMARK   59  A    between atoms: _133  and  _134
REMARK   60  A    between atoms: _133  and  _136
REMARK   61  A    between atoms: _136  and  _137
REMARK   62  A    between atoms: _140  and  _142
REMARK   63  A    between atoms: _142  and  _143
REMARK   64  A    between atoms: _145  and  _147
REMARK   65  A    between atoms: _147  and  _148
REMARK   66  A    between atoms: _150  and  _152
REMARK   67  A    between atoms: _152  and  _153
REMARK   68  A    between atoms: _152  and  _155
REMARK   69  A    between atoms: _155  and  _156
REMARK   70  A    between atoms: _159  and  _161
REMARK   71  A    between atoms: _161  and  _162
REMARK   72  A    between atoms: _164  and  _166
REMARK   73  A    between atoms: _166  and  _167
REMARK   74  A    between atoms: _169  and  _171
REMARK   75  A    between atoms: _171  and  _172
REMARK   76  A    between atoms: _171  and  _174
REMARK   77  A    between atoms: _174  and  _175
REMARK   78  A    between atoms: _181  and  _183
REMARK   79  A    between atoms: _183  and  _184
REMARK   80  A    between atoms: _183  and  _186
REMARK   81  A    between atoms: _189  and  _191
REMARK   82  A    between atoms: _191  and  _192
REMARK   83  A    between atoms: _191  and  _194
REMARK   84  A    between atoms: _197  and  _199
REMARK   85  A    between atoms: _199  and  _200
REMARK   86  A    between atoms: _199  and  _202
REMARK   87  A    between atoms: _202  and  _203
REMARK   88  A    between atoms: _207  and  _208
REMARK   89  A    between atoms: _213  and  _215
REMARK   90  A    between atoms: _215  and  _216
REMARK   91  A    between atoms: _215  and  _218
REMARK   92  A    between atoms: _218  and  _219
REMARK   93  A    between atoms: _223  and  _224
REMARK   94  A    between atoms: _229  and  _231
REMARK   95  A    between atoms: _231  and  _232
REMARK   96  A    between atoms: _231  and  _234
REMARK   97  A    between atoms: _237  and  _239
REMARK   98  A    between atoms: _239  and  _240
REMARK   99  A    between atoms: _239  and  _242
REMARK  100  A    between atoms: _242  and  _243
REMARK  101  A    between atoms: _248  and  _250
REMARK  102  A    between atoms: _250  and  _251
REMARK  103  A    between atoms: _250  and  _253
REMARK  104  A    between atoms: _253  and  _254
REMARK  105  A    between atoms: _257  and  _259
REMARK  106  A    between atoms: _259  and  _260
REMARK  107  A    between atoms: _259  and  _262
REMARK  108  A    between atoms: _262  and  _263
REMARK  109  A    between atoms: _266  and  _268
REMARK  110  A    between atoms: _268  and  _269
REMARK  111  A    between atoms: _271  and  _273
REMARK  112  A    between atoms: _273  and  _274
REMARK  113  A    between atoms: _273  and  _276
REMARK  114  A    between atoms: _277  and  _278
REMARK  115  A    between atoms: _278  and  _279
REMARK  116  A    between atoms: _288  and  _290
REMARK  117  A    between atoms: _290  and  _291
REMARK  118  A    between atoms: _290  and  _293
REMARK  119  A    between atoms: _293  and  _294
REMARK  120  A    between atoms: _299  and  _301
REMARK  121  A    between atoms: _301  and  _302
REMARK  122  A    between atoms: _301  and  _304
REMARK  123  A    between atoms: _304  and  _305
REMARK  124  A    between atoms: _305  and  _306
REMARK  125  A    between atoms: _306  and  _307
REMARK  126  A    between atoms: _316  and  _318
REMARK  127  A    between atoms: _318  and  _319
REMARK  128  A    between atoms: _318  and  _321
REMARK  129  A    between atoms: _321  and  _322
REMARK  130  A    between atoms: _325  and  _327
REMARK  131  A    between atoms: _327  and  _328
REMARK  132  A    between atoms: _327  and  _330
REMARK  133  A    between atoms: _330  and  _331
REMARK  134  A    between atoms: _334  and  _336
REMARK  135  A    between atoms: _336  and  _337
REMARK  136  A    between atoms: _336  and  _339
REMARK  137  A    between atoms: _339  and  _340
REMARK  138  A    between atoms: _343  and  _345
REMARK  139  A    between atoms: _345  and  _346
REMARK  140  A    between atoms: _345  and  _348
REMARK  141  A    between atoms: _348  and  _349
REMARK  142  A    between atoms: _352  and  _354
REMARK  143  A    between atoms: _354  and  _355
REMARK  144  A    between atoms: _357  and  _359
REMARK  145  A    between atoms: _359  and  _360
REMARK  146  A    between atoms: _363  and  _365
REMARK  147  A    between atoms: _365  and  _366
REMARK  148  A    between atoms: _365  and  _368
REMARK  149  A    between atoms: _368  and  _369
REMARK  150  A    between atoms: _372  and  _374
REMARK  151  A    between atoms: _374  and  _375
REMARK  152  A    between atoms: _374  and  _377
REMARK  153  A    between atoms: _377  and  _378
REMARK  154  A    between atoms: _381  and  _383
REMARK  155  A    between atoms: _383  and  _384
REMARK  156  A    between atoms: _383  and  _386
REMARK  157  A    between atoms: _386  and  _387
REMARK  158  A    between atoms: _390  and  _392
REMARK  159  A    between atoms: _392  and  _393
REMARK  160  A    between atoms: _392  and  _395
REMARK  161  A    between atoms: _398  and  _400
REMARK  162  A    between atoms: _400  and  _401
REMARK  163  A    between atoms: _400  and  _403
REMARK  164  A    between atoms: _403  and  _404
REMARK  165  A    between atoms: _407  and  _409
REMARK  166  A    between atoms: _409  and  _410
REMARK  167  A    between atoms: _409  and  _412
REMARK  168  A    between atoms: _412  and  _413
REMARK  169  A    between atoms: _413  and  _414
REMARK  170  A    between atoms: _414  and  _415
REMARK  171  A    between atoms: _415  and  _416
REMARK  172  A    between atoms: _420  and  _422
REMARK  173  A    between atoms: _422  and  _423
REMARK  174  A    between atoms: _422  and  _425
REMARK  175  A    between atoms: _425  and  _426
REMARK  176  A    between atoms: _426  and  _427
REMARK  177  A    between atoms: _429  and  _431
REMARK  178  A    between atoms: _431  and  _432
REMARK  179  A    between atoms: _431  and  _434
REMARK  180  A    between atoms: _434  and  _435
REMARK  181  A    between atoms: _438  and  _440
REMARK  182  A    between atoms: _440  and  _441
REMARK  183  A    between atoms: _443  and  _445
REMARK  184  A    between atoms: _445  and  _446
REMARK  185  A    between atoms: _448  and  _450
REMARK  186  A    between atoms: _450  and  _451
REMARK  187  A    between atoms: _450  and  _453
REMARK  188  A    between atoms: _453  and  _454
REMARK  189  A    between atoms: _457  and  _459
REMARK  190  A    between atoms: _459  and  _460
REMARK  191  A    between atoms: _462  and  _464
REMARK  192  A    between atoms: _464  and  _465
REMARK  193  A    between atoms: _467  and  _469
REMARK  194  A    between atoms: _469  and  _470
REMARK  195  A    between atoms: _469  and  _472
REMARK  196  A    between atoms: _472  and  _473
REMARK  197  A    between atoms: _479  and  _481
REMARK  198  A    between atoms: _481  and  _482
REMARK  199  A    between atoms: _481  and  _484
REMARK  200  A    between atoms: _487  and  _489
REMARK  201  A    between atoms: _489  and  _490
REMARK  202  A    between atoms: _489  and  _492
REMARK  203  A    between atoms: _495  and  _497
REMARK  204  A    between atoms: _497  and  _498
REMARK  205  A    between atoms: _497  and  _500
REMARK  206  A    between atoms: _500  and  _501
REMARK  207  A    between atoms: _504  and  _506
REMARK  208  A    between atoms: _506  and  _507
REMARK  209  A    between atoms: _506  and  _509
REMARK  210  A    between atoms: _509  and  _510
REMARK  211  A    between atoms: _514  and  _515
REMARK  212  A    between atoms: _520  and  _522
REMARK  213  A    between atoms: _522  and  _523
REMARK  214  A    between atoms: _522  and  _525
REMARK  215  A    between atoms: _528  and  _530
REMARK  216  A    between atoms: _530  and  _531
REMARK  217  A    between atoms: _530  and  _533
REMARK  218  A    between atoms: _533  and  _534
REMARK  219  A    between atoms: _539  and  _541
REMARK  220  A    between atoms: _541  and  _542
REMARK  221  A    between atoms: _541  and  _544
REMARK  222  A    between atoms: _544  and  _545
REMARK  223  A    between atoms: _548  and  _550
REMARK  224  A    between atoms: _550  and  _551
REMARK  225  A    between atoms: _550  and  _553
REMARK  226  A    between atoms: _553  and  _554
REMARK  227  A    between atoms: _557  and  _559
REMARK  228  A    between atoms: _559  and  _560
REMARK  229  A    between atoms: _562  and  _564
REMARK  230  A    between atoms: _564  and  _565
REMARK  231  A    between atoms: _564  and  _567
REMARK  232  A    between atoms: _567  and  _568
REMARK  233  A    between atoms: _568  and  _569
REMARK  234  A    between atoms: _569  and  _570
REMARK  235  A    between atoms: _579  and  _581
REMARK  236  A    between atoms: _581  and  _582
REMARK  237  A    between atoms: _581  and  _584
REMARK  238  A    between atoms: _584  and  _585
REMARK                            x       y       z     vdW  Elec       q    Type
REMARK                         _______ _______ _______ _____ _____    ______ ____
ROOT
ATOM      1  CA  ILE A   6      15.841  14.556  11.130  0.00  0.00    +0.149 C 
ENDROOT
BRANCH   1   2
ATOM      2  C   ILE A   6      15.483  13.071  11.126  0.00  0.00    +0.241 C 
ATOM      3  N   ILE A   7      16.329  12.288  11.785  0.00  0.00    -0.297 N 
ATOM      4  H   ILE A   7      17.241  12.676  12.100  0.00  0.00    +0.150 HD
ATOM      5  O   ILE A   6      14.483  12.647  10.549  0.00  0.00    -0.273 OA
BRANCH   3   6
ATOM      6  CA  ILE A   7      16.009  10.899  12.076  0.00  0.00    +0.149 C 
BRANCH   6   7
ATOM      7  C   ILE A   7      15.362  10.868  13.464  0.00  0.00    +0.241 C 
ATOM      8  O   ILE A   7      15.973  11.193  14.480  0.00  0.00    -0.273 OA
ATOM      9  N   GLY A   8      14.086  10.525  13.539  0.00  0.00    -0.295 N 
ATOM     10  H   GLY A   8      13.592  10.266  12.661  0.00  0.00    +0.150 HD
BRANCH   9  11
ATOM     11  CA  GLY A   8      13.356  10.492  14.757  0.00  0.00    +0.176 C 
BRANCH  11  12
ATOM     12  C   GLY A   8      13.253   9.104  15.375  0.00  0.00    +0.243 C 
ATOM     13  N   ARG A   9      12.534   9.050  16.482  0.00  0.00    -0.294 N 
ATOM     14  H   ARG A   9      11.982   9.884  16.767  0.00  0.00    +0.150 HD
ATOM     15  O   GLY A   8      13.791   8.117  14.899  0.00  0.00    -0.273 OA
BRANCH  13  16
ATOM     16  CA  ARG A   9      12.492   7.858  17.312  0.00  0.00    +0.171 C 
BRANCH  16  17
ATOM     17  C   ARG A   9      12.005   6.649  16.524  0.00  0.00    +0.245 C 
ATOM     18  O   ARG A   9      12.461   5.545  16.819  0.00  0.00    -0.273 OA
ATOM     19  N   ASN A  10      11.092   6.849  15.580  0.00  0.00    -0.297 N 
ATOM     20  H   ASN A  10      10.786   7.812  15.334  0.00  0.00    +0.150 HD
BRANCH  19  21
ATOM     21  CA  ASN A  10      10.527   5.692  14.896  0.00  0.00    +0.146 C 
BRANCH  21  22
ATOM     22  C   ASN A  10      11.588   4.885  14.172  0.00  0.00    +0.227 C 
ATOM     23  O   ASN A  10      11.391   3.676  13.960  0.00  0.00    -0.286 OA
ENDBRANCH  21  22
BRANCH  21  24
ATOM     24  CB  ASN A  10       9.407   6.145  13.959  0.00  0.00    +0.112 C 
BRANCH  24  25
ATOM     25  CG  ASN A  10       9.938   6.811  12.700  0.00  0.00    +0.222 C 
ATOM     26  OD1 ASN A  10      10.711   7.749  12.722  0.00  0.00    -0.275 OA
ATOM     27  ND2 ASN A  10       9.486   6.253  11.578  0.00  0.00    -0.329 N 
ATOM     28 HD21 ASN A  10       8.825   5.451  11.626  0.00  0.00    +0.145 HD
ATOM     29 HD22 ASN A  10       9.794   6.619  10.655  0.00  0.00    +0.145 HD
ENDBRANCH  24  25
ENDBRANCH  21  24
ENDBRANCH  19  21
ENDBRANCH  16  17
BRANCH  16  30
ATOM     30  CB  ARG A   9      11.649   8.064  18.553  0.00  0.00    +0.001 C 
ATOM     31  CG  ARG A   9      12.184   9.074  19.550  0.00  0.00    +0.014 C 
BRANCH  31  32
ATOM     32  CD  ARG A   9      11.472   9.099  20.890  0.00  0.00    +0.200 C 
BRANCH  32  33
ATOM     33  NE  ARG A   9      10.080   9.503  20.676  0.00  0.00    -0.261 N 
ATOM     34  CZ  ARG A   9       9.010   8.740  20.633  0.00  0.00    +0.342 C 
ATOM     35  NH2 ARG A   9       9.074   7.416  20.789  0.00  0.00    -0.292 N 
ATOM     36 HH21 ARG A   9       9.992   6.955  20.951  0.00  0.00    +0.255 HD
ATOM     37 HH22 ARG A   9       8.206   6.845  20.749  0.00  0.00    +0.255 HD
ATOM     38  NH1 ARG A   9       7.838   9.334  20.420  0.00  0.00    -0.292 N 
ATOM     39 HH11 ARG A   9       6.967   8.767  20.379  0.00  0.00    +0.255 HD
ATOM     40 HH12 ARG A   9       7.793  10.365  20.295  0.00  0.00    +0.255 HD
ATOM     41  HE  ARG A   9       9.918  10.521  20.541  0.00  0.00    +0.259 HD
ENDBRANCH  32  33
ENDBRANCH  31  32
ENDBRANCH  16  30
ENDBRANCH  13  16
ENDBRANCH  11  12
ENDBRANCH   9  11
ENDBRANCH   6   7
BRANCH   6  42
ATOM     42  CB  ILE A   7      17.235   9.976  12.063  0.00  0.00    +0.027 C 
ATOM     43  CG2 ILE A   7      16.843   8.538  12.375  0.00  0.00    +0.002 C 
BRANCH  42  44
ATOM     44  CG1 ILE A   7      18.018  10.062  10.749  0.00  0.00    +0.002 C 
ATOM     45  CD1 ILE A   7      17.171   9.815   9.524  0.00  0.00    +0.000 C 
ENDBRANCH  42  44
ENDBRANCH   6  42
ENDBRANCH   3   6
ENDBRANCH   1   2
BRANCH   1  48
ATOM     46  C   ASN A   5      16.999  15.667   9.317  0.00  0.00    +0.241 C 
ATOM     47  O   ASN A   5      18.018  15.770   9.972  0.00  0.00    -0.273 OA
ATOM     48  N   ILE A   6      15.955  15.048   9.786  0.00  0.00    -0.297 N 
ATOM     49  H   ILE A   6      15.150  14.900   9.145  0.00  0.00    +0.150 HD
BRANCH  46  50
ATOM     50  CA  ASN A   5      16.910  16.258   7.923  0.00  0.00    +0.158 C 
BRANCH  50  53
ATOM     51  C   VAL A   4      16.656  18.599   8.555  0.00  0.00    +0.241 C 
ATOM     52  O   VAL A   4      15.520  18.454   8.998  0.00  0.00    -0.273 OA
ATOM     53  N   ASN A   5      17.370  17.643   7.985  0.00  0.00    -0.297 N 
ATOM     54  H   ASN A   5      18.291  17.886   7.566  0.00  0.00    +0.150 HD
BRANCH  51  55
ATOM     55  CA  VAL A   4      17.261  19.992   8.662  0.00  0.00    +0.149 C 
BRANCH  55  57
ATOM     56  C   PRO A   3      16.447  22.126   7.853  0.00  0.00    +0.241 C 
ATOM     57  N   VAL A   4      16.205  20.984   8.459  0.00  0.00    -0.297 N 
ATOM     58  H   VAL A   4      15.244  20.782   8.801  0.00  0.00    +0.150 HD
ATOM     59  O   PRO A   3      17.578  22.368   7.406  0.00  0.00    -0.273 OA
BRANCH  56  65
ATOM     60  C   THR A   2      13.518  21.671   6.970  0.00  0.00    +0.246 C 
ATOM     61  N   PRO A   3      13.987  22.482   7.916  0.00  0.00    -0.272 N 
ATOM     62  CD  PRO A   3      13.357  22.887   9.173  0.00  0.00    +0.094 C 
ATOM     63  CG  PRO A   3      14.283  23.912   9.746  0.00  0.00    +0.024 C 
ATOM     64  CB  PRO A   3      15.390  24.170   8.818  0.00  0.00    +0.031 C 
ATOM     65  CA  PRO A   3      15.295  23.114   7.715  0.00  0.00    +0.152 C 
ATOM     66  O   THR A   2      14.120  21.456   5.927  0.00  0.00    -0.273 OA
BRANCH  60  67
ATOM     67  CA  THR A   2      12.164  21.027   7.227  0.00  0.00    +0.176 C 
BRANCH  67  70
ATOM     68  C   PRO A   1      10.674  21.993   5.572  0.00  0.00    +0.239 C 
ATOM     69  O   PRO A   1      10.504  23.035   6.221  0.00  0.00    -0.274 OA
ATOM     70  N   THR A   2      11.388  20.978   5.994  0.00  0.00    -0.295 N 
ATOM     71  H   THR A   2      11.401  20.105   5.428  0.00  0.00    +0.150 HD
BRANCH  68  76
ATOM     72  N   PRO A   1       9.102  20.737   4.131  0.00  0.00    -0.210 NA
ATOM     73  CD  PRO A   1       7.709  21.197   4.222  0.00  0.00    +0.089 C 
ATOM     74  CG  PRO A   1       7.841  22.660   4.497  0.00  0.00    +0.021 C 
ATOM     75  CB  PRO A   1       9.160  23.045   3.921  0.00  0.00    +0.028 C 
ATOM     76  CA  PRO A   1      10.044  21.837   4.196  0.00  0.00    +0.149 C 
ENDBRANCH  68  76
ENDBRANCH  67  70
BRANCH  67  77
ATOM     77  CB  THR A   2      12.349  19.643   7.861  0.00  0.00    +0.137 C 
ATOM     78  CG2 THR A   2      12.952  18.649   6.899  0.00  0.00    +0.034 C 
BRANCH  77  79
ATOM     79  OG1 THR A   2      13.220  19.828   9.013  0.00  0.00    -0.382 OA
ATOM     80  HG1 THR A   2      13.368  18.955   9.457  0.00  0.00    +0.210 HD
ENDBRANCH  77  79
ENDBRANCH  67  77
ENDBRANCH  60  67
ENDBRANCH  56  65
ENDBRANCH  55  57
BRANCH  55  81
ATOM     81  CB  VAL A   4      17.922  20.181  10.035  0.00  0.00    +0.027 C 
ATOM     82  CG2 VAL A   4      16.901  19.902  11.129  0.00  0.00    +0.002 C 
ATOM     83  CG1 VAL A   4      19.143  19.295  10.161  0.00  0.00    +0.002 C 
ENDBRANCH  55  81
ENDBRANCH  51  55
ENDBRANCH  50  53
BRANCH  50  84
ATOM     84  CB  ASN A   5      17.696  15.404   6.946  0.00  0.00    +0.114 C 
BRANCH  84  85
ATOM     85  CG  ASN A   5      17.548  15.863   5.507  0.00  0.00    +0.222 C 
ATOM     86  OD1 ASN A   5      16.451  16.122   5.049  0.00  0.00    -0.275 OA
ATOM     87  ND2 ASN A   5      18.693  15.948   4.833  0.00  0.00    -0.329 N 
ATOM     88 HD21 ASN A   5      19.591  15.708   5.300  0.00  0.00    +0.145 HD
ATOM     89 HD22 ASN A   5      18.690  16.255   3.839  0.00  0.00    +0.145 HD
ENDBRANCH  84  85
ENDBRANCH  50  84
ENDBRANCH  46  50
ENDBRANCH   1  48
BRANCH   1  90
ATOM     90  CB  ILE A   6      14.755  15.366  11.884  0.00  0.00    +0.027 C 
ATOM     91  CG2 ILE A   6      14.406  14.661  13.184  0.00  0.00    +0.002 C 
BRANCH  90  92
ATOM     92  CG1 ILE A   6      15.140  16.830  12.079  0.00  0.00    +0.002 C 
ATOM     93  CD1 ILE A   6      13.993  17.726  12.398  0.00  0.00    +0.000 C 
ENDBRANCH  90  92
ENDBRANCH   1  90
TORSDOF 32
REMARK  Name = ../refined-set-2016/3nuj/3nuj_pocket.pdb
REMARK  238 active torsions:
REMARK  status: ('A' for Active; 'I' for Inactive)
REMARK    1  A    between atoms: _1  and  _3
REMARK    2  A    between atoms: _3  and  _4
REMARK    3  A    between atoms: _3  and  _6
REMARK    4  A    between atoms: _6  and  _7
REMARK    5  A    between atoms: _7  and  _8
REMARK    6  A    between atoms: _8  and  _9
REMARK    7  A    between atoms: _18  and  _20
REMARK    8  A    between atoms: _20  and  _21
REMARK    9  A    between atoms: _20  and  _23
REMARK   10  A    between atoms: _23  and  _24
REMARK   11  A    between atoms: _27  and  _29
REMARK   12  A    between atoms: _29  and  _30
REMARK   13  A    between atoms: _29  and  _32
REMARK   14  A    between atoms: _32  and  _33
REMARK   15  A    between atoms: _36  and  _38
REMARK   16  A    between atoms: _38  and  _39
REMARK   17  A    between atoms: _38  and  _41
REMARK   18  A    between atoms: _41  and  _42
REMARK   19  A    between atoms: _45  and  _47
REMARK   20  A    between atoms: _47  and  _48
REMARK   21  A    between atoms: _47  and  _50
REMARK   22  A    between atoms: _50  and  _51
REMARK   23  A    between atoms: _54  and  _56
REMARK   24  A    between atoms: _56  and  _57
REMARK   25  A    between atoms: _59  and  _61
REMARK   26  A    between atoms: _61  and  _62
REMARK   27  A    between atoms: _65  and  _67
REMARK   28  A    between atoms: _67  and  _68
REMARK   29  A    between atoms: _67  and  _70
REMARK   30  A    between atoms: _70  and  _71
REMARK   31  A    between atoms: _74  and  _76
REMARK   32  A    between atoms: _76  and  _77
REMARK   33  A    between atoms: _76  and  _79
REMARK   34  A    between atoms: _79  and  _80
REMARK   35  A    between atoms: _83  and  _85
REMARK   36  A    between atoms: _85  and  _86
REMARK   37  A    between atoms: _85  and  _88
REMARK   38  A    between atoms: _88  and  _89
REMARK   39  A    between atoms: _92  and  _94
REMARK   40  A    between atoms: _94  and  _95
REMARK   41  A    between atoms: _94  and  _97
REMARK   42  A    between atoms: _100  and  _102
REMARK   43  A    between atoms: _102  and  _103
REMARK   44  A    between atoms: _102  and  _105
REMARK   45  A    between atoms: _105  and  _106
REMARK   46  A    between atoms: _109  and  _111
REMARK   47  A    between atoms: _111  and  _112
REMARK   48  A    between atoms: _111  and  _114
REMARK   49  A    between atoms: _114  and  _115
REMARK   50  A    between atoms: _115  and  _116
REMARK   51  A    between atoms: _116  and  _117
REMARK   52  A    between atoms: _117  and  _118
REMARK   53  A    between atoms: _122  and  _124
REMARK   54  A    between atoms: _124  and  _125
REMARK   55  A    between atoms: _124  and  _127
REMARK   56  A    between atoms: _127  and  _128
REMARK   57  A    between atoms: _128  and  _129
REMARK   58  A    between atoms: _131  and  _133
REMARK   59  A    between atoms: _133  and  _134
REMARK   60  A    between atoms: _133  and  _136
REMARK   61  A    between atoms: _136  and  _137
REMARK   62  A    between atoms: _140  and  _142
REMARK   63  A    between atoms: _142  and  _143
REMARK   64  A    between atoms: _145  and  _147
REMARK   65  A    between atoms: _147  and  _148
REMARK   66  A    between atoms: _150  and  _152
REMARK   67  A    between atoms: _152  and  _153
REMARK   68  A    between atoms: _152  and  _155
REMARK   69  A    between atoms: _155  and  _156
REMARK   70  A    between atoms: _159  and  _161
REMARK   71  A    between atoms: _161  and  _162
REMARK   72  A    between atoms: _164  and  _166
REMARK   73  A    between atoms: _166  and  _167
REMARK   74  A    between atoms: _169  and  _171
REMARK   75  A    between atoms: _171  and  _172
REMARK   76  A    between atoms: _171  and  _174
REMARK   77  A    between atoms: _174  and  _175
REMARK   78  A    between atoms: _181  and  _183
REMARK   79  A    between atoms: _183  and  _184
REMARK   80  A    between atoms: _183  and  _186
REMARK   81  A    between atoms: _189  and  _191
REMARK   82  A    between atoms: _191  and  _192
REMARK   83  A    between atoms: _191  and  _194
REMARK   84  A    between atoms: _197  and  _199
REMARK   85  A    between atoms: _199  and  _200
REMARK   86  A    between atoms: _199  and  _202
REMARK   87  A    between atoms: _202  and  _203
REMARK   88  A    between atoms: _207  and  _208
REMARK   89  A    between atoms: _213  and  _215
REMARK   90  A    between atoms: _215  and  _216
REMARK   91  A    between atoms: _215  and  _218
REMARK   92  A    between atoms: _218  and  _219
REMARK   93  A    between atoms: _223  and  _224
REMARK   94  A    between atoms: _229  and  _231
REMARK   95  A    between atoms: _231  and  _232
REMARK   96  A    between atoms: _231  and  _234
REMARK   97  A    between atoms: _237  and  _239
REMARK   98  A    between atoms: _239  and  _240
REMARK   99  A    between atoms: _239  and  _242
REMARK  100  A    between atoms: _242  and  _243
REMARK  101  A    between atoms: _248  and  _250
REMARK  102  A    between atoms: _250  and  _251
REMARK  103  A    between atoms: _250  and  _253
REMARK  104  A    between atoms: _253  and  _254
REMARK  105  A    between atoms: _257  and  _259
REMARK  106  A    between atoms: _259  and  _260
REMARK  107  A    between atoms: _259  and  _262
REMARK  108  A    between atoms: _262  and  _263
REMARK  109  A    between atoms: _266  and  _268
REMARK  110  A    between atoms: _268  and  _269
REMARK  111  A    between atoms: _271  and  _273
REMARK  112  A    between atoms: _273  and  _274
REMARK  113  A    between atoms: _273  and  _276
REMARK  114  A    between atoms: _277  and  _278
REMARK  115  A    between atoms: _278  and  _279
REMARK  116  A    between atoms: _288  and  _290
REMARK  117  A    between atoms: _290  and  _291
REMARK  118  A    between atoms: _290  and  _293
REMARK  119  A    between atoms: _293  and  _294
REMARK  120  A    between atoms: _299  and  _301
REMARK  121  A    between atoms: _301  and  _302
REMARK  122  A    between atoms: _301  and  _304
REMARK  123  A    between atoms: _304  and  _305
REMARK  124  A    between atoms: _305  and  _306
REMARK  125  A    between atoms: _306  and  _307
REMARK  126  A    between atoms: _316  and  _318
REMARK  127  A    between atoms: _318  and  _319
REMARK  128  A    between atoms: _318  and  _321
REMARK  129  A    between atoms: _321  and  _322
REMARK  130  A    between atoms: _325  and  _327
REMARK  131  A    between atoms: _327  and  _328
REMARK  132  A    between atoms: _327  and  _330
REMARK  133  A    between atoms: _330  and  _331
REMARK  134  A    between atoms: _334  and  _336
REMARK  135  A    between atoms: _336  and  _337
REMARK  136  A    between atoms: _336  and  _339
REMARK  137  A    between atoms: _339  and  _340
REMARK  138  A    between atoms: _343  and  _345
REMARK  139  A    between atoms: _345  and  _346
REMARK  140  A    between atoms: _345  and  _348
REMARK  141  A    between atoms: _348  and  _349
REMARK  142  A    between atoms: _352  and  _354
REMARK  143  A    between atoms: _354  and  _355
REMARK  144  A    between atoms: _357  and  _359
REMARK  145  A    between atoms: _359  and  _360
REMARK  146  A    between atoms: _363  and  _365
REMARK  147  A    between atoms: _365  and  _366
REMARK  148  A    between atoms: _365  and  _368
REMARK  149  A    between atoms: _368  and  _369
REMARK  150  A    between atoms: _372  and  _374
REMARK  151  A    between atoms: _374  and  _375
REMARK  152  A    between atoms: _374  and  _377
REMARK  153  A    between atoms: _377  and  _378
REMARK  154  A    between atoms: _381  and  _383
REMARK  155  A    between atoms: _383  and  _384
REMARK  156  A    between atoms: _383  and  _386
REMARK  157  A    between atoms: _386  and  _387
REMARK  158  A    between atoms: _390  and  _392
REMARK  159  A    between atoms: _392  and  _393
REMARK  160  A    between atoms: _392  and  _395
REMARK  161  A    between atoms: _398  and  _400
REMARK  162  A    between atoms: _400  and  _401
REMARK  163  A    between atoms: _400  and  _403
REMARK  164  A    between atoms: _403  and  _404
REMARK  165  A    between atoms: _407  and  _409
REMARK  166  A    between atoms: _409  and  _410
REMARK  167  A    between atoms: _409  and  _412
REMARK  168  A    between atoms: _412  and  _413
REMARK  169  A    between atoms: _413  and  _414
REMARK  170  A    between atoms: _414  and  _415
REMARK  171  A    between atoms: _415  and  _416
REMARK  172  A    between atoms: _420  and  _422
REMARK  173  A    between atoms: _422  and  _423
REMARK  174  A    between atoms: _422  and  _425
REMARK  175  A    between atoms: _425  and  _426
REMARK  176  A    between atoms: _426  and  _427
REMARK  177  A    between atoms: _429  and  _431
REMARK  178  A    between atoms: _431  and  _432
REMARK  179  A    between atoms: _431  and  _434
REMARK  180  A    between atoms: _434  and  _435
REMARK  181  A    between atoms: _438  and  _440
REMARK  182  A    between atoms: _440  and  _441
REMARK  183  A    between atoms: _443  and  _445
REMARK  184  A    between atoms: _445  and  _446
REMARK  185  A    between atoms: _448  and  _450
REMARK  186  A    between atoms: _450  and  _451
REMARK  187  A    between atoms: _450  and  _453
REMARK  188  A    between atoms: _453  and  _454
REMARK  189  A    between atoms: _457  and  _459
REMARK  190  A    between atoms: _459  and  _460
REMARK  191  A    between atoms: _462  and  _464
REMARK  192  A    between atoms: _464  and  _465
REMARK  193  A    between atoms: _467  and  _469
REMARK  194  A    between atoms: _469  and  _470
REMARK  195  A    between atoms: _469  and  _472
REMARK  196  A    between atoms: _472  and  _473
REMARK  197  A    between atoms: _479  and  _481
REMARK  198  A    between atoms: _481  and  _482
REMARK  199  A    between atoms: _481  and  _484
REMARK  200  A    between atoms: _487  and  _489
REMARK  201  A    between atoms: _489  and  _490
REMARK  202  A    between atoms: _489  and  _492
REMARK  203  A    between atoms: _495  and  _497
REMARK  204  A    between atoms: _497  and  _498
REMARK  205  A    between atoms: _497  and  _500
REMARK  206  A    between atoms: _500  and  _501
REMARK  207  A    between atoms: _504  and  _506
REMARK  208  A    between atoms: _506  and  _507
REMARK  209  A    between atoms: _506  and  _509
REMARK  210  A    between atoms: _509  and  _510
REMARK  211  A    between atoms: _514  and  _515
REMARK  212  A    between atoms: _520  and  _522
REMARK  213  A    between atoms: _522  and  _523
REMARK  214  A    between atoms: _522  and  _525
REMARK  215  A    between atoms: _528  and  _530
REMARK  216  A    between atoms: _530  and  _531
REMARK  217  A    between atoms: _530  and  _533
REMARK  218  A    between atoms: _533  and  _534
REMARK  219  A    between atoms: _539  and  _541
REMARK  220  A    between atoms: _541  and  _542
REMARK  221  A    between atoms: _541  and  _544
REMARK  222  A    between atoms: _544  and  _545
REMARK  223  A    between atoms: _548  and  _550
REMARK  224  A    between atoms: _550  and  _551
REMARK  225  A    between atoms: _550  and  _553
REMARK  226  A    between atoms: _553  and  _554
REMARK  227  A    between atoms: _557  and  _559
REMARK  228  A    between atoms: _559  and  _560
REMARK  229  A    between atoms: _562  and  _564
REMARK  230  A    between atoms: _564  and  _565
REMARK  231  A    between atoms: _564  and  _567
REMARK  232  A    between atoms: _567  and  _568
REMARK  233  A    between atoms: _568  and  _569
REMARK  234  A    between atoms: _569  and  _570
REMARK  235  A    between atoms: _579  and  _581
REMARK  236  A    between atoms: _581  and  _582
REMARK  237  A    between atoms: _581  and  _584
REMARK  238  A    between atoms: _584  and  _585
REMARK                            x       y       z     vdW  Elec       q    Type
REMARK                         _______ _______ _______ _____ _____    ______ ____
ROOT
ATOM      1  NE  ARG A   1       6.405  13.351  22.230  0.00  0.00    -0.265 N 
ATOM      2  CZ  ARG A   1       6.173  14.666  22.150  0.00  0.00    +0.342 C 
ATOM      3  NH2 ARG A   1       6.261  15.501  23.177  0.00  0.00    -0.292 N 
ATOM      4 HH21 ARG A   1       6.525  15.143  24.117  0.00  0.00    +0.255 HD
ATOM      5 HH22 ARG A   1       6.066  16.514  23.042  0.00  0.00    +0.255 HD
ATOM      6  NH1 ARG A   1       5.842  15.199  20.978  0.00  0.00    -0.292 N 
ATOM      7 HH11 ARG A   1       5.659  16.220  20.904  0.00  0.00    +0.255 HD
ATOM      8 HH12 ARG A   1       5.766  14.595  20.135  0.00  0.00    +0.255 HD
ATOM      9  HE  ARG A   1       6.321  12.785  21.361  0.00  0.00    +0.259 HD
ENDROOT
BRANCH   1  10
ATOM     10  CD  ARG A   1       6.764  12.673  23.448  0.00  0.00    +0.174 C 
BRANCH  10  11
ATOM     11  CG  ARG A   1       7.487  11.366  23.219  0.00  0.00    +0.045 C 
BRANCH  11  12
ATOM     12  CB  ARG A   1       8.226  10.971  24.492  0.00  0.00    +0.029 C 
BRANCH  12  13
ATOM     13  CA  ARG A   1       9.241   9.846  24.338  0.00  0.00    +0.133 C 
BRANCH  13  14
ATOM     14  N   ARG A   1       8.524   8.584  24.176  0.00  0.00    -0.239 NA
ATOM     15  H   ARG A   1       7.484   8.587  24.149  0.00  0.00    +0.142 HD
ENDBRANCH  13  14
BRANCH  13  16
ATOM     16  C   ARG A   1      10.136   9.797  25.570  0.00  0.00    +0.224 C 
ATOM     17  O   ARG A   1       9.674   9.292  26.604  0.00  0.00    -0.287 OA
ENDBRANCH  13  16
ENDBRANCH  12  13
ENDBRANCH  11  12
ENDBRANCH  10  11
ENDBRANCH   1  10
TORSDOF 6
REMARK  Name = ../refined-set-2016/3nuj/3nuj_pocket.pdb
REMARK  238 active torsions:
REMARK  status: ('A' for Active; 'I' for Inactive)
REMARK    1  A    between atoms: _1  and  _3
REMARK    2  A    between atoms: _3  and  _4
REMARK    3  A    between atoms: _3  and  _6
REMARK    4  A    between atoms: _6  and  _7
REMARK    5  A    between atoms: _7  and  _8
REMARK    6  A    between atoms: _8  and  _9
REMARK    7  A    between atoms: _18  and  _20
REMARK    8  A    between atoms: _20  and  _21
REMARK    9  A    between atoms: _20  and  _23
REMARK   10  A    between atoms: _23  and  _24
REMARK   11  A    between atoms: _27  and  _29
REMARK   12  A    between atoms: _29  and  _30
REMARK   13  A    between atoms: _29  and  _32
REMARK   14  A    between atoms: _32  and  _33
REMARK   15  A    between atoms: _36  and  _38
REMARK   16  A    between atoms: _38  and  _39
REMARK   17  A    between atoms: _38  and  _41
REMARK   18  A    between atoms: _41  and  _42
REMARK   19  A    between atoms: _45  and  _47
REMARK   20  A    between atoms: _47  and  _48
REMARK   21  A    between atoms: _47  and  _50
REMARK   22  A    between atoms: _50  and  _51
REMARK   23  A    between atoms: _54  and  _56
REMARK   24  A    between atoms: _56  and  _57
REMARK   25  A    between atoms: _59  and  _61
REMARK   26  A    between atoms: _61  and  _62
REMARK   27  A    between atoms: _65  and  _67
REMARK   28  A    between atoms: _67  and  _68
REMARK   29  A    between atoms: _67  and  _70
REMARK   30  A    between atoms: _70  and  _71
REMARK   31  A    between atoms: _74  and  _76
REMARK   32  A    between atoms: _76  and  _77
REMARK   33  A    between atoms: _76  and  _79
REMARK   34  A    between atoms: _79  and  _80
REMARK   35  A    between atoms: _83  and  _85
REMARK   36  A    between atoms: _85  and  _86
REMARK   37  A    between atoms: _85  and  _88
REMARK   38  A    between atoms: _88  and  _89
REMARK   39  A    between atoms: _92  and  _94
REMARK   40  A    between atoms: _94  and  _95
REMARK   41  A    between atoms: _94  and  _97
REMARK   42  A    between atoms: _100  and  _102
REMARK   43  A    between atoms: _102  and  _103
REMARK   44  A    between atoms: _102  and  _105
REMARK   45  A    between atoms: _105  and  _106
REMARK   46  A    between atoms: _109  and  _111
REMARK   47  A    between atoms: _111  and  _112
REMARK   48  A    between atoms: _111  and  _114
REMARK   49  A    between atoms: _114  and  _115
REMARK   50  A    between atoms: _115  and  _116
REMARK   51  A    between atoms: _116  and  _117
REMARK   52  A    between atoms: _117  and  _118
REMARK   53  A    between atoms: _122  and  _124
REMARK   54  A    between atoms: _124  and  _125
REMARK   55  A    between atoms: _124  and  _127
REMARK   56  A    between atoms: _127  and  _128
REMARK   57  A    between atoms: _128  and  _129
REMARK   58  A    between atoms: _131  and  _133
REMARK   59  A    between atoms: _133  and  _134
REMARK   60  A    between atoms: _133  and  _136
REMARK   61  A    between atoms: _136  and  _137
REMARK   62  A    between atoms: _140  and  _142
REMARK   63  A    between atoms: _142  and  _143
REMARK   64  A    between atoms: _145  and  _147
REMARK   65  A    between atoms: _147  and  _148
REMARK   66  A    between atoms: _150  and  _152
REMARK   67  A    between atoms: _152  and  _153
REMARK   68  A    between atoms: _152  and  _155
REMARK   69  A    between atoms: _155  and  _156
REMARK   70  A    between atoms: _159  and  _161
REMARK   71  A    between atoms: _161  and  _162
REMARK   72  A    between atoms: _164  and  _166
REMARK   73  A    between atoms: _166  and  _167
REMARK   74  A    between atoms: _169  and  _171
REMARK   75  A    between atoms: _171  and  _172
REMARK   76  A    between atoms: _171  and  _174
REMARK   77  A    between atoms: _174  and  _175
REMARK   78  A    between atoms: _181  and  _183
REMARK   79  A    between atoms: _183  and  _184
REMARK   80  A    between atoms: _183  and  _186
REMARK   81  A    between atoms: _189  and  _191
REMARK   82  A    between atoms: _191  and  _192
REMARK   83  A    between atoms: _191  and  _194
REMARK   84  A    between atoms: _197  and  _199
REMARK   85  A    between atoms: _199  and  _200
REMARK   86  A    between atoms: _199  and  _202
REMARK   87  A    between atoms: _202  and  _203
REMARK   88  A    between atoms: _207  and  _208
REMARK   89  A    between atoms: _213  and  _215
REMARK   90  A    between atoms: _215  and  _216
REMARK   91  A    between atoms: _215  and  _218
REMARK   92  A    between atoms: _218  and  _219
REMARK   93  A    between atoms: _223  and  _224
REMARK   94  A    between atoms: _229  and  _231
REMARK   95  A    between atoms: _231  and  _232
REMARK   96  A    between atoms: _231  and  _234
REMARK   97  A    between atoms: _237  and  _239
REMARK   98  A    between atoms: _239  and  _240
REMARK   99  A    between atoms: _239  and  _242
REMARK  100  A    between atoms: _242  and  _243
REMARK  101  A    between atoms: _248  and  _250
REMARK  102  A    between atoms: _250  and  _251
REMARK  103  A    between atoms: _250  and  _253
REMARK  104  A    between atoms: _253  and  _254
REMARK  105  A    between atoms: _257  and  _259
REMARK  106  A    between atoms: _259  and  _260
REMARK  107  A    between atoms: _259  and  _262
REMARK  108  A    between atoms: _262  and  _263
REMARK  109  A    between atoms: _266  and  _268
REMARK  110  A    between atoms: _268  and  _269
REMARK  111  A    between atoms: _271  and  _273
REMARK  112  A    between atoms: _273  and  _274
REMARK  113  A    between atoms: _273  and  _276
REMARK  114  A    between atoms: _277  and  _278
REMARK  115  A    between atoms: _278  and  _279
REMARK  116  A    between atoms: _288  and  _290
REMARK  117  A    between atoms: _290  and  _291
REMARK  118  A    between atoms: _290  and  _293
REMARK  119  A    between atoms: _293  and  _294
REMARK  120  A    between atoms: _299  and  _301
REMARK  121  A    between atoms: _301  and  _302
REMARK  122  A    between atoms: _301  and  _304
REMARK  123  A    between atoms: _304  and  _305
REMARK  124  A    between atoms: _305  and  _306
REMARK  125  A    between atoms: _306  and  _307
REMARK  126  A    between atoms: _316  and  _318
REMARK  127  A    between atoms: _318  and  _319
REMARK  128  A    between atoms: _318  and  _321
REMARK  129  A    between atoms: _321  and  _322
REMARK  130  A    between atoms: _325  and  _327
REMARK  131  A    between atoms: _327  and  _328
REMARK  132  A    between atoms: _327  and  _330
REMARK  133  A    between atoms: _330  and  _331
REMARK  134  A    between atoms: _334  and  _336
REMARK  135  A    between atoms: _336  and  _337
REMARK  136  A    between atoms: _336  and  _339
REMARK  137  A    between atoms: _339  and  _340
REMARK  138  A    between atoms: _343  and  _345
REMARK  139  A    between atoms: _345  and  _346
REMARK  140  A    between atoms: _345  and  _348
REMARK  141  A    between atoms: _348  and  _349
REMARK  142  A    between atoms: _352  and  _354
REMARK  143  A    between atoms: _354  and  _355
REMARK  144  A    between atoms: _357  and  _359
REMARK  145  A    between atoms: _359  and  _360
REMARK  146  A    between atoms: _363  and  _365
REMARK  147  A    between atoms: _365  and  _366
REMARK  148  A    between atoms: _365  and  _368
REMARK  149  A    between atoms: _368  and  _369
REMARK  150  A    between atoms: _372  and  _374
REMARK  151  A    between atoms: _374  and  _375
REMARK  152  A    between atoms: _374  and  _377
REMARK  153  A    between atoms: _377  and  _378
REMARK  154  A    between atoms: _381  and  _383
REMARK  155  A    between atoms: _383  and  _384
REMARK  156  A    between atoms: _383  and  _386
REMARK  157  A    between atoms: _386  and  _387
REMARK  158  A    between atoms: _390  and  _392
REMARK  159  A    between atoms: _392  and  _393
REMARK  160  A    between atoms: _392  and  _395
REMARK  161  A    between atoms: _398  and  _400
REMARK  162  A    between atoms: _400  and  _401
REMARK  163  A    between atoms: _400  and  _403
REMARK  164  A    between atoms: _403  and  _404
REMARK  165  A    between atoms: _407  and  _409
REMARK  166  A    between atoms: _409  and  _410
REMARK  167  A    between atoms: _409  and  _412
REMARK  168  A    between atoms: _412  and  _413
REMARK  169  A    between atoms: _413  and  _414
REMARK  170  A    between atoms: _414  and  _415
REMARK  171  A    between atoms: _415  and  _416
REMARK  172  A    between atoms: _420  and  _422
REMARK  173  A    between atoms: _422  and  _423
REMARK  174  A    between atoms: _422  and  _425
REMARK  175  A    between atoms: _425  and  _426
REMARK  176  A    between atoms: _426  and  _427
REMARK  177  A    between atoms: _429  and  _431
REMARK  178  A    between atoms: _431  and  _432
REMARK  179  A    between atoms: _431  and  _434
REMARK  180  A    between atoms: _434  and  _435
REMARK  181  A    between atoms: _438  and  _440
REMARK  182  A    between atoms: _440  and  _441
REMARK  183  A    between atoms: _443  and  _445
REMARK  184  A    between atoms: _445  and  _446
REMARK  185  A    between atoms: _448  and  _450
REMARK  186  A    between atoms: _450  and  _451
REMARK  187  A    between atoms: _450  and  _453
REMARK  188  A    between atoms: _453  and  _454
REMARK  189  A    between atoms: _457  and  _459
REMARK  190  A    between atoms: _459  and  _460
REMARK  191  A    between atoms: _462  and  _464
REMARK  192  A    between atoms: _464  and  _465
REMARK  193  A    between atoms: _467  and  _469
REMARK  194  A    between atoms: _469  and  _470
REMARK  195  A    between atoms: _469  and  _472
REMARK  196  A    between atoms: _472  and  _473
REMARK  197  A    between atoms: _479  and  _481
REMARK  198  A    between atoms: _481  and  _482
REMARK  199  A    between atoms: _481  and  _484
REMARK  200  A    between atoms: _487  and  _489
REMARK  201  A    between atoms: _489  and  _490
REMARK  202  A    between atoms: _489  and  _492
REMARK  203  A    between atoms: _495  and  _497
REMARK  204  A    between atoms: _497  and  _498
REMARK  205  A    between atoms: _497  and  _500
REMARK  206  A    between atoms: _500  and  _501
REMARK  207  A    between atoms: _504  and  _506
REMARK  208  A    between atoms: _506  and  _507
REMARK  209  A    between atoms: _506  and  _509
REMARK  210  A    between atoms: _509  and  _510
REMARK  211  A    between atoms: _514  and  _515
REMARK  212  A    between atoms: _520  and  _522
REMARK  213  A    between atoms: _522  and  _523
REMARK  214  A    between atoms: _522  and  _525
REMARK  215  A    between atoms: _528  and  _530
REMARK  216  A    between atoms: _530  and  _531
REMARK  217  A    between atoms: _530  and  _533
REMARK  218  A    between atoms: _533  and  _534
REMARK  219  A    between atoms: _539  and  _541
REMARK  220  A    between atoms: _541  and  _542
REMARK  221  A    between atoms: _541  and  _544
REMARK  222  A    between atoms: _544  and  _545
REMARK  223  A    between atoms: _548  and  _550
REMARK  224  A    between atoms: _550  and  _551
REMARK  225  A    between atoms: _550  and  _553
REMARK  226  A    between atoms: _553  and  _554
REMARK  227  A    between atoms: _557  and  _559
REMARK  228  A    between atoms: _559  and  _560
REMARK  229  A    between atoms: _562  and  _564
REMARK  230  A    between atoms: _564  and  _565
REMARK  231  A    between atoms: _564  and  _567
REMARK  232  A    between atoms: _567  and  _568
REMARK  233  A    between atoms: _568  and  _569
REMARK  234  A    between atoms: _569  and  _570
REMARK  235  A    between atoms: _579  and  _581
REMARK  236  A    between atoms: _581  and  _582
REMARK  237  A    between atoms: _581  and  _584
REMARK  238  A    between atoms: _584  and  _585
REMARK                            x       y       z     vdW  Elec       q    Type
REMARK                         _______ _______ _______ _____ _____    ______ ____
ROOT
ATOM      1  C   ALA A   6      19.267  21.211  20.670  0.00  0.00    +0.241 C 
ATOM      2  O   ALA A   6      19.886  20.604  21.550  0.00  0.00    -0.273 OA
ATOM      3  N   ASP A   7      19.754  22.290  20.090  0.00  0.00    -0.297 N 
ATOM      4  H   ASP A   7      19.244  22.779  19.327  0.00  0.00    +0.150 HD
ENDROOT
BRANCH   1   5
ATOM      5  CA  ALA A   6      17.905  20.724  20.229  0.00  0.00    +0.149 C 
ATOM      6  CB  ALA A   6      16.865  20.787  21.347  0.00  0.00    +0.031 C 
BRANCH   5   8
ATOM      7  C   GLY A   5      18.007  19.033  18.453  0.00  0.00    +0.243 C 
ATOM      8  N   ALA A   6      17.991  19.352  19.739  0.00  0.00    -0.297 N 
ATOM      9  H   ALA A   6      18.043  18.583  20.437  0.00  0.00    +0.150 HD
ATOM     10  O   GLY A   5      17.916  19.913  17.598  0.00  0.00    -0.273 OA
BRANCH   7  11
ATOM     11  CA  GLY A   5      18.128  17.558  18.109  0.00  0.00    +0.176 C 
BRANCH  11  14
ATOM     12  C   THR A   4      19.474  16.421  19.817  0.00  0.00    +0.243 C 
ATOM     13  O   THR A   4      20.525  16.909  19.390  0.00  0.00    -0.273 OA
ATOM     14  N   GLY A   5      18.300  16.685  19.265  0.00  0.00    -0.295 N 
ATOM     15  H   GLY A   5      17.453  16.245  19.679  0.00  0.00    +0.150 HD
BRANCH  12  16
ATOM     16  CA  THR A   4      19.470  15.520  21.045  0.00  0.00    +0.176 C 
BRANCH  16  19
ATOM     17  C   ASP A   3      17.590  16.415  22.250  0.00  0.00    +0.241 C 
ATOM     18  O   ASP A   3      18.120  17.510  22.270  0.00  0.00    -0.273 OA
ATOM     19  N   THR A   4      18.156  15.371  21.655  0.00  0.00    -0.295 N 
ATOM     20  H   THR A   4      17.665  14.455  21.625  0.00  0.00    +0.150 HD
BRANCH  17  21
ATOM     21  CA  ASP A   3      16.239  16.175  22.903  0.00  0.00    +0.160 C 
BRANCH  21  23
ATOM     22  C   LEU A   2      15.768  14.872  24.915  0.00  0.00    +0.241 C 
ATOM     23  N   ASP A   3      16.330  15.898  24.327  0.00  0.00    -0.297 N 
ATOM     24  H   ASP A   3      16.877  16.557  24.917  0.00  0.00    +0.150 HD
ATOM     25  O   LEU A   2      15.327  13.927  24.294  0.00  0.00    -0.273 OA
BRANCH  22  26
ATOM     26  CA  LEU A   2      15.606  14.857  26.421  0.00  0.00    +0.149 C 
BRANCH  26  28
ATOM     27  C   LEU A   1      13.474  15.934  26.706  0.00  0.00    +0.238 C 
ATOM     28  N   LEU A   2      14.196  14.822  26.761  0.00  0.00    -0.297 N 
ATOM     29  H   LEU A   2      13.752  13.926  27.047  0.00  0.00    +0.150 HD
ATOM     30  O   LEU A   1      14.003  17.024  26.474  0.00  0.00    -0.274 OA
BRANCH  27  31
ATOM     31  CA  LEU A   1      11.968  15.853  26.939  0.00  0.00    +0.145 C 
BRANCH  31  32
ATOM     32  N   LEU A   1      11.551  16.757  27.979  0.00  0.00    -0.238 NA
ATOM     33  H   LEU A   1      11.349  17.743  27.716  0.00  0.00    +0.142 HD
ENDBRANCH  31  32
BRANCH  31  34
ATOM     34  CB  LEU A   1      11.212  16.267  25.672  0.00  0.00    +0.026 C 
BRANCH  34  35
ATOM     35  CG  LEU A   1      11.392  15.475  24.406  0.00  0.00    +0.002 C 
ATOM     36  CD2 LEU A   1      10.753  14.114  24.553  0.00  0.00    +0.000 C 
ATOM     37  CD1 LEU A   1      10.752  16.264  23.269  0.00  0.00    +0.000 C 
ENDBRANCH  34  35
ENDBRANCH  31  34
ENDBRANCH  27  31
ENDBRANCH  26  28
BRANCH  26  38
ATOM     38  CB  LEU A   2      16.293  13.631  27.015  0.00  0.00    +0.029 C 
BRANCH  38  39
ATOM     39  CG  LEU A   2      16.143  13.488  28.527  0.00  0.00    +0.002 C 
ATOM     40  CD2 LEU A   2      16.611  14.733  29.253  0.00  0.00    +0.000 C 
ATOM     41  CD1 LEU A   2      16.899  12.243  28.971  0.00  0.00    +0.000 C 
ENDBRANCH  38  39
ENDBRANCH  26  38
ENDBRANCH  22  26
ENDBRANCH  21  23
BRANCH  21  42
ATOM     42  CB  ASP A   3      15.359  17.415  22.727  0.00  0.00    +0.143 C 
BRANCH  42  43
ATOM     43  CG  ASP A   3      14.939  17.670  21.296  0.00  0.00    +0.367 C 
ATOM     44  OD2 ASP A   3      14.046  18.536  21.092  0.00  0.00    -0.246 OA
ATOM     45  OD1 ASP A   3      15.514  17.011  20.386  0.00  0.00    -0.246 OA
ENDBRANCH  42  43
ENDBRANCH  21  42
ENDBRANCH  17  21
ENDBRANCH  16  19
BRANCH  16  46
ATOM     46  CB  THR A   4      20.048  14.135  20.659  0.00  0.00    +0.137 C 
ATOM     47  CG2 THR A   4      20.237  13.295  21.910  0.00  0.00    +0.034 C 
BRANCH  46  48
ATOM     48  OG1 THR A   4      19.146  13.468  19.803  0.00  0.00    -0.382 OA
ATOM     49  HG1 THR A   4      19.009  14.008  18.985  0.00  0.00    +0.210 HD
ENDBRANCH  46  48
ENDBRANCH  16  46
ENDBRANCH  12  16
ENDBRANCH  11  14
ENDBRANCH   7  11
ENDBRANCH   5   8
ENDBRANCH   1   5
BRANCH   3  50
ATOM     50  CA  ASP A   7      21.038  22.758  20.572  0.00  0.00    +0.160 C 
BRANCH  50  51
ATOM     51  C   ASP A   7      20.966  23.302  22.003  0.00  0.00    +0.241 C 
ATOM     52  O   ASP A   7      21.933  23.227  22.780  0.00  0.00    -0.273 OA
ATOM     53  N   ASP A   8      19.828  23.889  22.306  0.00  0.00    -0.297 N 
ATOM     54  H   ASP A   8      19.052  23.826  21.617  0.00  0.00    +0.150 HD
BRANCH  53  55
ATOM     55  CA  ASP A   8      19.582  24.619  23.538  0.00  0.00    +0.160 C 
BRANCH  55  56
ATOM     56  C   ASP A   8      18.414  24.069  24.341  0.00  0.00    +0.241 C 
ATOM     57  N   THR A   9      18.343  24.425  25.594  0.00  0.00    -0.295 N 
ATOM     58  H   THR A   9      19.084  25.046  25.977  0.00  0.00    +0.150 HD
ATOM     59  O   ASP A   8      17.569  23.332  23.859  0.00  0.00    -0.273 OA
BRANCH  57  60
ATOM     60  CA  THR A   9      17.262  23.987  26.488  0.00  0.00    +0.176 C 
BRANCH  60  61
ATOM     61  C   THR A   9      16.192  25.050  26.545  0.00  0.00    +0.243 C 
ATOM     62  O   THR A   9      16.508  26.212  26.715  0.00  0.00    -0.273 OA
ATOM     63  N   VAL A  10      14.962  24.655  26.375  0.00  0.00    -0.297 N 
ATOM     64  H   VAL A  10      14.784  23.634  26.283  0.00  0.00    +0.150 HD
BRANCH  63  65
ATOM     65  CA  VAL A  10      13.831  25.551  26.307  0.00  0.00    +0.149 C 
BRANCH  65  66
ATOM     66  C   VAL A  10      12.737  25.100  27.280  0.00  0.00    +0.241 C 
ATOM     67  N   ILE A  11      12.336  25.979  28.188  0.00  0.00    -0.298 N 
ATOM     68  H   ILE A  11      12.757  26.929  28.149  0.00  0.00    +0.150 HD
ATOM     69  O   VAL A  10      12.304  23.961  27.188  0.00  0.00    -0.273 OA
BRANCH  67  70
ATOM     70  CA  ILE A  11      11.355  25.725  29.236  0.00  0.00    +0.137 C 
BRANCH  70  71
ATOM     71  CB  ILE A  11      11.991  25.943  30.625  0.00  0.00    +0.026 C 
ATOM     72  CG2 ILE A  11      10.988  25.668  31.738  0.00  0.00    +0.002 C 
BRANCH  71  73
ATOM     73  CG1 ILE A  11      13.270  25.143  30.842  0.00  0.00    +0.002 C 
ATOM     74  CD1 ILE A  11      13.118  23.634  30.788  0.00  0.00    +0.000 C 
ENDBRANCH  71  73
ENDBRANCH  70  71
BRANCH  70  75
ATOM     75  C   ILE A  11      10.128  26.608  29.065  0.00  0.00    +0.227 C 
ATOM     76  O   ILE A  11      10.218  27.753  28.618  0.00  0.00    -0.286 OA
ENDBRANCH  70  75
ENDBRANCH  67  70
ENDBRANCH  65  66
BRANCH  65  77
ATOM     77  CB  VAL A  10      13.200  25.648  24.908  0.00  0.00    +0.027 C 
ATOM     78  CG2 VAL A  10      12.236  26.834  24.909  0.00  0.00    +0.002 C 
ATOM     79  CG1 VAL A  10      14.273  25.833  23.882  0.00  0.00    +0.002 C 
ENDBRANCH  65  77
ENDBRANCH  63  65
ENDBRANCH  60  61
BRANCH  60  80
ATOM     80  CB  THR A   9      17.921  23.741  27.858  0.00  0.00    +0.137 C 
ATOM     81  CG2 THR A   9      16.884  23.564  28.958  0.00  0.00    +0.034 C 
BRANCH  80  82
ATOM     82  OG1 THR A   9      18.772  22.580  27.775  0.00  0.00    -0.382 OA
ATOM     83  HG1 THR A   9      19.472  22.734  27.092  0.00  0.00    +0.210 HD
ENDBRANCH  80  82
ENDBRANCH  60  80
ENDBRANCH  57  60
ENDBRANCH  55  56
BRANCH  55  84
ATOM     84  CB  ASP A   8      19.239  26.063  23.188  0.00  0.00    +0.143 C 
BRANCH  84  85
ATOM     85  CG  ASP A   8      20.099  26.719  22.144  0.00  0.00    +0.367 C 
ATOM     86  OD2 ASP A   8      21.331  26.735  22.377  0.00  0.00    -0.246 OA
ATOM     87  OD1 ASP A   8      19.617  27.229  21.094  0.00  0.00    -0.246 OA
ENDBRANCH  84  85
ENDBRANCH  55  84
ENDBRANCH  53  55
ENDBRANCH  50  51
BRANCH  50  88
ATOM     88  CB  ASP A   7      21.531  23.860  19.665  0.00  0.00    +0.143 C 
BRANCH  88  89
ATOM     89  CG  ASP A   7      21.777  23.491  18.212  0.00  0.00    +0.367 C 
ATOM     90  OD2 ASP A   7      22.084  22.353  17.831  0.00  0.00    -0.246 OA
ATOM     91  OD1 ASP A   7      21.657  24.400  17.373  0.00  0.00    -0.246 OA
ENDBRANCH  88  89
ENDBRANCH  50  88
ENDBRANCH   3  50
TORSDOF 39
REMARK  Name = ../refined-set-2016/3nuj/3nuj_pocket.pdb
REMARK  238 active torsions:
REMARK  status: ('A' for Active; 'I' for Inactive)
REMARK    1  A    between atoms: _1  and  _3
REMARK    2  A    between atoms: _3  and  _4
REMARK    3  A    between atoms: _3  and  _6
REMARK    4  A    between atoms: _6  and  _7
REMARK    5  A    between atoms: _7  and  _8
REMARK    6  A    between atoms: _8  and  _9
REMARK    7  A    between atoms: _18  and  _20
REMARK    8  A    between atoms: _20  and  _21
REMARK    9  A    between atoms: _20  and  _23
REMARK   10  A    between atoms: _23  and  _24
REMARK   11  A    between atoms: _27  and  _29
REMARK   12  A    between atoms: _29  and  _30
REMARK   13  A    between atoms: _29  and  _32
REMARK   14  A    between atoms: _32  and  _33
REMARK   15  A    between atoms: _36  and  _38
REMARK   16  A    between atoms: _38  and  _39
REMARK   17  A    between atoms: _38  and  _41
REMARK   18  A    between atoms: _41  and  _42
REMARK   19  A    between atoms: _45  and  _47
REMARK   20  A    between atoms: _47  and  _48
REMARK   21  A    between atoms: _47  and  _50
REMARK   22  A    between atoms: _50  and  _51
REMARK   23  A    between atoms: _54  and  _56
REMARK   24  A    between atoms: _56  and  _57
REMARK   25  A    between atoms: _59  and  _61
REMARK   26  A    between atoms: _61  and  _62
REMARK   27  A    between atoms: _65  and  _67
REMARK   28  A    between atoms: _67  and  _68
REMARK   29  A    between atoms: _67  and  _70
REMARK   30  A    between atoms: _70  and  _71
REMARK   31  A    between atoms: _74  and  _76
REMARK   32  A    between atoms: _76  and  _77
REMARK   33  A    between atoms: _76  and  _79
REMARK   34  A    between atoms: _79  and  _80
REMARK   35  A    between atoms: _83  and  _85
REMARK   36  A    between atoms: _85  and  _86
REMARK   37  A    between atoms: _85  and  _88
REMARK   38  A    between atoms: _88  and  _89
REMARK   39  A    between atoms: _92  and  _94
REMARK   40  A    between atoms: _94  and  _95
REMARK   41  A    between atoms: _94  and  _97
REMARK   42  A    between atoms: _100  and  _102
REMARK   43  A    between atoms: _102  and  _103
REMARK   44  A    between atoms: _102  and  _105
REMARK   45  A    between atoms: _105  and  _106
REMARK   46  A    between atoms: _109  and  _111
REMARK   47  A    between atoms: _111  and  _112
REMARK   48  A    between atoms: _111  and  _114
REMARK   49  A    between atoms: _114  and  _115
REMARK   50  A    between atoms: _115  and  _116
REMARK   51  A    between atoms: _116  and  _117
REMARK   52  A    between atoms: _117  and  _118
REMARK   53  A    between atoms: _122  and  _124
REMARK   54  A    between atoms: _124  and  _125
REMARK   55  A    between atoms: _124  and  _127
REMARK   56  A    between atoms: _127  and  _128
REMARK   57  A    between atoms: _128  and  _129
REMARK   58  A    between atoms: _131  and  _133
REMARK   59  A    between atoms: _133  and  _134
REMARK   60  A    between atoms: _133  and  _136
REMARK   61  A    between atoms: _136  and  _137
REMARK   62  A    between atoms: _140  and  _142
REMARK   63  A    between atoms: _142  and  _143
REMARK   64  A    between atoms: _145  and  _147
REMARK   65  A    between atoms: _147  and  _148
REMARK   66  A    between atoms: _150  and  _152
REMARK   67  A    between atoms: _152  and  _153
REMARK   68  A    between atoms: _152  and  _155
REMARK   69  A    between atoms: _155  and  _156
REMARK   70  A    between atoms: _159  and  _161
REMARK   71  A    between atoms: _161  and  _162
REMARK   72  A    between atoms: _164  and  _166
REMARK   73  A    between atoms: _166  and  _167
REMARK   74  A    between atoms: _169  and  _171
REMARK   75  A    between atoms: _171  and  _172
REMARK   76  A    between atoms: _171  and  _174
REMARK   77  A    between atoms: _174  and  _175
REMARK   78  A    between atoms: _181  and  _183
REMARK   79  A    between atoms: _183  and  _184
REMARK   80  A    between atoms: _183  and  _186
REMARK   81  A    between atoms: _189  and  _191
REMARK   82  A    between atoms: _191  and  _192
REMARK   83  A    between atoms: _191  and  _194
REMARK   84  A    between atoms: _197  and  _199
REMARK   85  A    between atoms: _199  and  _200
REMARK   86  A    between atoms: _199  and  _202
REMARK   87  A    between atoms: _202  and  _203
REMARK   88  A    between atoms: _207  and  _208
REMARK   89  A    between atoms: _213  and  _215
REMARK   90  A    between atoms: _215  and  _216
REMARK   91  A    between atoms: _215  and  _218
REMARK   92  A    between atoms: _218  and  _219
REMARK   93  A    between atoms: _223  and  _224
REMARK   94  A    between atoms: _229  and  _231
REMARK   95  A    between atoms: _231  and  _232
REMARK   96  A    between atoms: _231  and  _234
REMARK   97  A    between atoms: _237  and  _239
REMARK   98  A    between atoms: _239  and  _240
REMARK   99  A    between atoms: _239  and  _242
REMARK  100  A    between atoms: _242  and  _243
REMARK  101  A    between atoms: _248  and  _250
REMARK  102  A    between atoms: _250  and  _251
REMARK  103  A    between atoms: _250  and  _253
REMARK  104  A    between atoms: _253  and  _254
REMARK  105  A    between atoms: _257  and  _259
REMARK  106  A    between atoms: _259  and  _260
REMARK  107  A    between atoms: _259  and  _262
REMARK  108  A    between atoms: _262  and  _263
REMARK  109  A    between atoms: _266  and  _268
REMARK  110  A    between atoms: _268  and  _269
REMARK  111  A    between atoms: _271  and  _273
REMARK  112  A    between atoms: _273  and  _274
REMARK  113  A    between atoms: _273  and  _276
REMARK  114  A    between atoms: _277  and  _278
REMARK  115  A    between atoms: _278  and  _279
REMARK  116  A    between atoms: _288  and  _290
REMARK  117  A    between atoms: _290  and  _291
REMARK  118  A    between atoms: _290  and  _293
REMARK  119  A    between atoms: _293  and  _294
REMARK  120  A    between atoms: _299  and  _301
REMARK  121  A    between atoms: _301  and  _302
REMARK  122  A    between atoms: _301  and  _304
REMARK  123  A    between atoms: _304  and  _305
REMARK  124  A    between atoms: _305  and  _306
REMARK  125  A    between atoms: _306  and  _307
REMARK  126  A    between atoms: _316  and  _318
REMARK  127  A    between atoms: _318  and  _319
REMARK  128  A    between atoms: _318  and  _321
REMARK  129  A    between atoms: _321  and  _322
REMARK  130  A    between atoms: _325  and  _327
REMARK  131  A    between atoms: _327  and  _328
REMARK  132  A    between atoms: _327  and  _330
REMARK  133  A    between atoms: _330  and  _331
REMARK  134  A    between atoms: _334  and  _336
REMARK  135  A    between atoms: _336  and  _337
REMARK  136  A    between atoms: _336  and  _339
REMARK  137  A    between atoms: _339  and  _340
REMARK  138  A    between atoms: _343  and  _345
REMARK  139  A    between atoms: _345  and  _346
REMARK  140  A    between atoms: _345  and  _348
REMARK  141  A    between atoms: _348  and  _349
REMARK  142  A    between atoms: _352  and  _354
REMARK  143  A    between atoms: _354  and  _355
REMARK  144  A    between atoms: _357  and  _359
REMARK  145  A    between atoms: _359  and  _360
REMARK  146  A    between atoms: _363  and  _365
REMARK  147  A    between atoms: _365  and  _366
REMARK  148  A    between atoms: _365  and  _368
REMARK  149  A    between atoms: _368  and  _369
REMARK  150  A    between atoms: _372  and  _374
REMARK  151  A    between atoms: _374  and  _375
REMARK  152  A    between atoms: _374  and  _377
REMARK  153  A    between atoms: _377  and  _378
REMARK  154  A    between atoms: _381  and  _383
REMARK  155  A    between atoms: _383  and  _384
REMARK  156  A    between atoms: _383  and  _386
REMARK  157  A    between atoms: _386  and  _387
REMARK  158  A    between atoms: _390  and  _392
REMARK  159  A    between atoms: _392  and  _393
REMARK  160  A    between atoms: _392  and  _395
REMARK  161  A    between atoms: _398  and  _400
REMARK  162  A    between atoms: _400  and  _401
REMARK  163  A    between atoms: _400  and  _403
REMARK  164  A    between atoms: _403  and  _404
REMARK  165  A    between atoms: _407  and  _409
REMARK  166  A    between atoms: _409  and  _410
REMARK  167  A    between atoms: _409  and  _412
REMARK  168  A    between atoms: _412  and  _413
REMARK  169  A    between atoms: _413  and  _414
REMARK  170  A    between atoms: _414  and  _415
REMARK  171  A    between atoms: _415  and  _416
REMARK  172  A    between atoms: _420  and  _422
REMARK  173  A    between atoms: _422  and  _423
REMARK  174  A    between atoms: _422  and  _425
REMARK  175  A    between atoms: _425  and  _426
REMARK  176  A    between atoms: _426  and  _427
REMARK  177  A    between atoms: _429  and  _431
REMARK  178  A    between atoms: _431  and  _432
REMARK  179  A    between atoms: _431  and  _434
REMARK  180  A    between atoms: _434  and  _435
REMARK  181  A    between atoms: _438  and  _440
REMARK  182  A    between atoms: _440  and  _441
REMARK  183  A    between atoms: _443  and  _445
REMARK  184  A    between atoms: _445  and  _446
REMARK  185  A    between atoms: _448  and  _450
REMARK  186  A    between atoms: _450  and  _451
REMARK  187  A    between atoms: _450  and  _453
REMARK  188  A    between atoms: _453  and  _454
REMARK  189  A    between atoms: _457  and  _459
REMARK  190  A    between atoms: _459  and  _460
REMARK  191  A    between atoms: _462  and  _464
REMARK  192  A    between atoms: _464  and  _465
REMARK  193  A    between atoms: _467  and  _469
REMARK  194  A    between atoms: _469  and  _470
REMARK  195  A    between atoms: _469  and  _472
REMARK  196  A    between atoms: _472  and  _473
REMARK  197  A    between atoms: _479  and  _481
REMARK  198  A    between atoms: _481  and  _482
REMARK  199  A    between atoms: _481  and  _484
REMARK  200  A    between atoms: _487  and  _489
REMARK  201  A    between atoms: _489  and  _490
REMARK  202  A    between atoms: _489  and  _492
REMARK  203  A    between atoms: _495  and  _497
REMARK  204  A    between atoms: _497  and  _498
REMARK  205  A    between atoms: _497  and  _500
REMARK  206  A    between atoms: _500  and  _501
REMARK  207  A    between atoms: _504  and  _506
REMARK  208  A    between atoms: _506  and  _507
REMARK  209  A    between atoms: _506  and  _509
REMARK  210  A    between atoms: _509  and  _510
REMARK  211  A    between atoms: _514  and  _515
REMARK  212  A    between atoms: _520  and  _522
REMARK  213  A    between atoms: _522  and  _523
REMARK  214  A    between atoms: _522  and  _525
REMARK  215  A    between atoms: _528  and  _530
REMARK  216  A    between atoms: _530  and  _531
REMARK  217  A    between atoms: _530  and  _533
REMARK  218  A    between atoms: _533  and  _534
REMARK  219  A    between atoms: _539  and  _541
REMARK  220  A    between atoms: _541  and  _542
REMARK  221  A    between atoms: _541  and  _544
REMARK  222  A    between atoms: _544  and  _545
REMARK  223  A    between atoms: _548  and  _550
REMARK  224  A    between atoms: _550  and  _551
REMARK  225  A    between atoms: _550  and  _553
REMARK  226  A    between atoms: _553  and  _554
REMARK  227  A    between atoms: _557  and  _559
REMARK  228  A    between atoms: _559  and  _560
REMARK  229  A    between atoms: _562  and  _564
REMARK  230  A    between atoms: _564  and  _565
REMARK  231  A    between atoms: _564  and  _567
REMARK  232  A    between atoms: _567  and  _568
REMARK  233  A    between atoms: _568  and  _569
REMARK  234  A    between atoms: _569  and  _570
REMARK  235  A    between atoms: _579  and  _581
REMARK  236  A    between atoms: _581  and  _582
REMARK  237  A    between atoms: _581  and  _584
REMARK  238  A    between atoms: _584  and  _585
REMARK                            x       y       z     vdW  Elec       q    Type
REMARK                         _______ _______ _______ _____ _____    ______ ____
ROOT
ATOM      1  C   GLY A   5      12.127  24.691  13.682  0.00  0.00    +0.243 C 
ATOM      2  N   ILE A   6      11.313  23.658  13.720  0.00  0.00    -0.297 N 
ATOM      3  H   ILE A   6      11.083  23.200  14.625  0.00  0.00    +0.150 HD
ATOM      4  O   GLY A   5      12.366  25.314  12.647  0.00  0.00    -0.273 OA
ENDROOT
BRANCH   2   5
ATOM      5  CA  ILE A   6      10.738  23.164  12.474  0.00  0.00    +0.149 C 
BRANCH   5   6
ATOM      6  C   ILE A   6       9.819  24.184  11.845  0.00  0.00    +0.241 C 
ATOM      7  N   GLY A   7       9.127  24.978  12.660  0.00  0.00    -0.295 N 
ATOM      8  H   GLY A   7       9.256  24.931  13.691  0.00  0.00    +0.150 HD
ATOM      9  O   ILE A   6       9.712  24.320  10.618  0.00  0.00    -0.273 OA
BRANCH   7  10
ATOM     10  CA  GLY A   7       8.190  25.907  12.068  0.00  0.00    +0.176 C 
BRANCH  10  11
ATOM     11  C   GLY A   7       8.785  27.233  11.734  0.00  0.00    +0.243 C 
ATOM     12  N   GLY A   8      10.008  27.495  12.174  0.00  0.00    -0.295 N 
ATOM     13  H   GLY A   8      10.576  26.779  12.670  0.00  0.00    +0.150 HD
ATOM     14  O   GLY A   7       8.169  28.058  11.057  0.00  0.00    -0.273 OA
BRANCH  12  15
ATOM     15  CA  GLY A   8      10.517  28.849  11.923  0.00  0.00    +0.176 C 
BRANCH  15  16
ATOM     16  C   GLY A   8      11.280  29.347  13.141  0.00  0.00    +0.243 C 
ATOM     17  O   GLY A   8      11.572  28.524  14.028  0.00  0.00    -0.273 OA
ATOM     18  N   PHE A   9      11.578  30.641  13.110  0.00  0.00    -0.297 N 
ATOM     19  H   PHE A   9      11.232  31.213  12.314  0.00  0.00    +0.150 HD
BRANCH  18  20
ATOM     20  CA  PHE A   9      12.374  31.295  14.152  0.00  0.00    +0.153 C 
BRANCH  20  21
ATOM     21  C   PHE A   9      11.452  31.971  15.154  0.00  0.00    +0.241 C 
ATOM     22  N   VAL A  10      11.844  31.940  16.420  0.00  0.00    -0.298 N 
ATOM     23  H   VAL A  10      12.733  31.460  16.668  0.00  0.00    +0.150 HD
ATOM     24  O   PHE A   9      10.388  32.500  14.835  0.00  0.00    -0.273 OA
BRANCH  22  25
ATOM     25  CA  VAL A  10      11.056  32.564  17.466  0.00  0.00    +0.137 C 
BRANCH  25  26
ATOM     26  CB  VAL A  10      10.108  31.618  18.211  0.00  0.00    +0.026 C 
ATOM     27  CG2 VAL A  10      10.907  30.607  18.993  0.00  0.00    +0.002 C 
ATOM     28  CG1 VAL A  10       9.187  30.868  17.271  0.00  0.00    +0.002 C 
ENDBRANCH  25  26
BRANCH  25  29
ATOM     29  C   VAL A  10      12.000  33.156  18.509  0.00  0.00    +0.227 C 
ATOM     30  O   VAL A  10      13.089  32.638  18.720  0.00  0.00    -0.286 OA
ENDBRANCH  25  29
ENDBRANCH  22  25
ENDBRANCH  20  21
BRANCH  20  31
ATOM     31  CB  PHE A   9      13.360  32.324  13.600  0.00  0.00    +0.055 C 
BRANCH  31  32
ATOM     32  CG  PHE A   9      14.571  31.708  12.920  0.00  0.00    -0.020 A 
ATOM     33  CD2 PHE A   9      15.736  31.487  13.628  0.00  0.00    -0.004 A 
ATOM     34  CE2 PHE A   9      16.843  30.917  13.023  0.00  0.00    -0.000 A 
ATOM     35  CZ  PHE A   9      16.787  30.548  11.693  0.00  0.00    -0.000 A 
ATOM     36  CE1 PHE A   9      15.626  30.773  10.977  0.00  0.00    -0.000 A 
ATOM     37  CD1 PHE A   9      14.527  31.352  11.583  0.00  0.00    -0.004 A 
ENDBRANCH  31  32
ENDBRANCH  20  31
ENDBRANCH  18  20
ENDBRANCH  15  16
ENDBRANCH  12  15
ENDBRANCH  10  11
ENDBRANCH   7  10
ENDBRANCH   5   6
BRANCH   5  38
ATOM     38  CB  ILE A   6      10.019  21.832  12.767  0.00  0.00    +0.027 C 
ATOM     39  CG2 ILE A   6       8.770  22.050  13.588  0.00  0.00    +0.002 C 
BRANCH  38  40
ATOM     40  CG1 ILE A   6       9.718  21.010  11.525  0.00  0.00    +0.002 C 
ATOM     41  CD1 ILE A   6      10.651  19.829  11.422  0.00  0.00    +0.000 C 
ENDBRANCH  38  40
ENDBRANCH   5  38
ENDBRANCH   2   5
BRANCH   1  42
ATOM     42  CA  GLY A   5      12.747  25.059  15.018  0.00  0.00    +0.176 C 
BRANCH  42  45
ATOM     43  C   GLY A   4      14.429  26.703  15.263  0.00  0.00    +0.243 C 
ATOM     44  O   GLY A   4      15.201  25.894  15.785  0.00  0.00    -0.273 OA
ATOM     45  N   GLY A   5      13.187  26.435  14.898  0.00  0.00    -0.295 N 
ATOM     46  H   GLY A   5      12.554  27.178  14.541  0.00  0.00    +0.150 HD
BRANCH  43  47
ATOM     47  CA  GLY A   4      14.818  28.144  15.011  0.00  0.00    +0.176 C 
BRANCH  47  50
ATOM     48  C   ILE A   3      15.057  29.628  16.892  0.00  0.00    +0.241 C 
ATOM     49  O   ILE A   3      13.986  30.146  16.656  0.00  0.00    -0.273 OA
ATOM     50  N   GLY A   4      15.547  28.651  16.153  0.00  0.00    -0.295 N 
ATOM     51  H   GLY A   4      16.471  28.239  16.395  0.00  0.00    +0.150 HD
BRANCH  48  52
ATOM     52  CA  ILE A   3      15.961  30.056  18.041  0.00  0.00    +0.149 C 
BRANCH  52  54
ATOM     53  C   MET A   2      16.712  32.314  18.299  0.00  0.00    +0.241 C 
ATOM     54  N   ILE A   3      15.692  31.465  18.344  0.00  0.00    -0.297 N 
ATOM     55  H   ILE A   3      14.734  31.789  18.586  0.00  0.00    +0.150 HD
ATOM     56  O   MET A   2      17.877  31.954  18.155  0.00  0.00    -0.273 OA
BRANCH  53  57
ATOM     57  CA  MET A   2      16.336  33.786  18.441  0.00  0.00    +0.149 C 
BRANCH  57  60
ATOM     58  C   LYS A   1      16.622  34.610  20.721  0.00  0.00    +0.238 C 
ATOM     59  O   LYS A   1      15.432  34.490  21.029  0.00  0.00    -0.274 OA
ATOM     60  N   MET A   2      17.123  34.382  19.502  0.00  0.00    -0.297 N 
ATOM     61  H   MET A   2      18.111  34.641  19.309  0.00  0.00    +0.150 HD
BRANCH  58  62
ATOM     62  CA  LYS A   1      17.711  35.021  21.715  0.00  0.00    +0.145 C 
BRANCH  62  63
ATOM     63  N   LYS A   1      17.206  36.049  22.595  0.00  0.00    -0.238 NA
ATOM     64  H   LYS A   1      16.199  36.046  22.854  0.00  0.00    +0.142 HD
ENDBRANCH  62  63
BRANCH  62  65
ATOM     65  CB  LYS A   1      18.223  33.822  22.519  0.00  0.00    +0.026 C 
BRANCH  65  66
ATOM     66  CG  LYS A   1      18.973  32.827  21.623  0.00  0.00    -0.000 C 
BRANCH  66  67
ATOM     67  CD  LYS A   1      20.043  32.048  22.331  0.00  0.00    -0.024 C 
BRANCH  67  68
ATOM     68  CE  LYS A   1      20.482  30.867  21.482  0.00  0.00    -0.086 C 
BRANCH  68  69
ATOM     69  NZ  LYS A   1      21.474  31.274  20.460  0.00  0.00    +0.380 N 
ATOM     70  HZ1 LYS A   1      22.312  31.672  20.931  0.00  0.00    -0.089 HD
ATOM     71  HZ2 LYS A   1      21.752  30.444  19.898  0.00  0.00    -0.089 HD
ATOM     72  HZ3 LYS A   1      21.052  31.991  19.836  0.00  0.00    -0.089 HD
ENDBRANCH  68  69
ENDBRANCH  67  68
ENDBRANCH  66  67
ENDBRANCH  65  66
ENDBRANCH  62  65
ENDBRANCH  58  62
ENDBRANCH  57  60
BRANCH  57  73
ATOM     73  CB  MET A   2      16.522  34.482  17.081  0.00  0.00    +0.041 C 
BRANCH  73  74
ATOM     74  CG  MET A   2      15.491  33.965  16.082  0.00  0.00    +0.060 C 
BRANCH  74  75
ATOM     75  SD  MET A   2      13.959  34.916  16.121  0.00  0.00    -0.139 S 
ATOM     76  CE  MET A   2      14.467  36.407  15.261  0.00  0.00    +0.069 C 
ENDBRANCH  74  75
ENDBRANCH  73  74
ENDBRANCH  57  73
ENDBRANCH  53  57
ENDBRANCH  52  54
BRANCH  52  77
ATOM     77  CB  ILE A   3      15.741  29.128  19.248  0.00  0.00    +0.027 C 
ATOM     78  CG2 ILE A   3      16.805  29.451  20.287  0.00  0.00    +0.002 C 
BRANCH  77  79
ATOM     79  CG1 ILE A   3      14.309  29.173  19.745  0.00  0.00    +0.002 C 
ATOM     80  CD1 ILE A   3      13.970  28.163  20.803  0.00  0.00    +0.000 C 
ENDBRANCH  77  79
ENDBRANCH  52  77
ENDBRANCH  48  52
ENDBRANCH  47  50
ENDBRANCH  43  47
ENDBRANCH  42  45
ENDBRANCH   1  42
TORSDOF 35
REMARK  Name = ../refined-set-2016/3nuj/3nuj_pocket.pdb
REMARK  238 active torsions:
REMARK  status: ('A' for Active; 'I' for Inactive)
REMARK    1  A    between atoms: _1  and  _3
REMARK    2  A    between atoms: _3  and  _4
REMARK    3  A    between atoms: _3  and  _6
REMARK    4  A    between atoms: _6  and  _7
REMARK    5  A    between atoms: _7  and  _8
REMARK    6  A    between atoms: _8  and  _9
REMARK    7  A    between atoms: _18  and  _20
REMARK    8  A    between atoms: _20  and  _21
REMARK    9  A    between atoms: _20  and  _23
REMARK   10  A    between atoms: _23  and  _24
REMARK   11  A    between atoms: _27  and  _29
REMARK   12  A    between atoms: _29  and  _30
REMARK   13  A    between atoms: _29  and  _32
REMARK   14  A    between atoms: _32  and  _33
REMARK   15  A    between atoms: _36  and  _38
REMARK   16  A    between atoms: _38  and  _39
REMARK   17  A    between atoms: _38  and  _41
REMARK   18  A    between atoms: _41  and  _42
REMARK   19  A    between atoms: _45  and  _47
REMARK   20  A    between atoms: _47  and  _48
REMARK   21  A    between atoms: _47  and  _50
REMARK   22  A    between atoms: _50  and  _51
REMARK   23  A    between atoms: _54  and  _56
REMARK   24  A    between atoms: _56  and  _57
REMARK   25  A    between atoms: _59  and  _61
REMARK   26  A    between atoms: _61  and  _62
REMARK   27  A    between atoms: _65  and  _67
REMARK   28  A    between atoms: _67  and  _68
REMARK   29  A    between atoms: _67  and  _70
REMARK   30  A    between atoms: _70  and  _71
REMARK   31  A    between atoms: _74  and  _76
REMARK   32  A    between atoms: _76  and  _77
REMARK   33  A    between atoms: _76  and  _79
REMARK   34  A    between atoms: _79  and  _80
REMARK   35  A    between atoms: _83  and  _85
REMARK   36  A    between atoms: _85  and  _86
REMARK   37  A    between atoms: _85  and  _88
REMARK   38  A    between atoms: _88  and  _89
REMARK   39  A    between atoms: _92  and  _94
REMARK   40  A    between atoms: _94  and  _95
REMARK   41  A    between atoms: _94  and  _97
REMARK   42  A    between atoms: _100  and  _102
REMARK   43  A    between atoms: _102  and  _103
REMARK   44  A    between atoms: _102  and  _105
REMARK   45  A    between atoms: _105  and  _106
REMARK   46  A    between atoms: _109  and  _111
REMARK   47  A    between atoms: _111  and  _112
REMARK   48  A    between atoms: _111  and  _114
REMARK   49  A    between atoms: _114  and  _115
REMARK   50  A    between atoms: _115  and  _116
REMARK   51  A    between atoms: _116  and  _117
REMARK   52  A    between atoms: _117  and  _118
REMARK   53  A    between atoms: _122  and  _124
REMARK   54  A    between atoms: _124  and  _125
REMARK   55  A    between atoms: _124  and  _127
REMARK   56  A    between atoms: _127  and  _128
REMARK   57  A    between atoms: _128  and  _129
REMARK   58  A    between atoms: _131  and  _133
REMARK   59  A    between atoms: _133  and  _134
REMARK   60  A    between atoms: _133  and  _136
REMARK   61  A    between atoms: _136  and  _137
REMARK   62  A    between atoms: _140  and  _142
REMARK   63  A    between atoms: _142  and  _143
REMARK   64  A    between atoms: _145  and  _147
REMARK   65  A    between atoms: _147  and  _148
REMARK   66  A    between atoms: _150  and  _152
REMARK   67  A    between atoms: _152  and  _153
REMARK   68  A    between atoms: _152  and  _155
REMARK   69  A    between atoms: _155  and  _156
REMARK   70  A    between atoms: _159  and  _161
REMARK   71  A    between atoms: _161  and  _162
REMARK   72  A    between atoms: _164  and  _166
REMARK   73  A    between atoms: _166  and  _167
REMARK   74  A    between atoms: _169  and  _171
REMARK   75  A    between atoms: _171  and  _172
REMARK   76  A    between atoms: _171  and  _174
REMARK   77  A    between atoms: _174  and  _175
REMARK   78  A    between atoms: _181  and  _183
REMARK   79  A    between atoms: _183  and  _184
REMARK   80  A    between atoms: _183  and  _186
REMARK   81  A    between atoms: _189  and  _191
REMARK   82  A    between atoms: _191  and  _192
REMARK   83  A    between atoms: _191  and  _194
REMARK   84  A    between atoms: _197  and  _199
REMARK   85  A    between atoms: _199  and  _200
REMARK   86  A    between atoms: _199  and  _202
REMARK   87  A    between atoms: _202  and  _203
REMARK   88  A    between atoms: _207  and  _208
REMARK   89  A    between atoms: _213  and  _215
REMARK   90  A    between atoms: _215  and  _216
REMARK   91  A    between atoms: _215  and  _218
REMARK   92  A    between atoms: _218  and  _219
REMARK   93  A    between atoms: _223  and  _224
REMARK   94  A    between atoms: _229  and  _231
REMARK   95  A    between atoms: _231  and  _232
REMARK   96  A    between atoms: _231  and  _234
REMARK   97  A    between atoms: _237  and  _239
REMARK   98  A    between atoms: _239  and  _240
REMARK   99  A    between atoms: _239  and  _242
REMARK  100  A    between atoms: _242  and  _243
REMARK  101  A    between atoms: _248  and  _250
REMARK  102  A    between atoms: _250  and  _251
REMARK  103  A    between atoms: _250  and  _253
REMARK  104  A    between atoms: _253  and  _254
REMARK  105  A    between atoms: _257  and  _259
REMARK  106  A    between atoms: _259  and  _260
REMARK  107  A    between atoms: _259  and  _262
REMARK  108  A    between atoms: _262  and  _263
REMARK  109  A    between atoms: _266  and  _268
REMARK  110  A    between atoms: _268  and  _269
REMARK  111  A    between atoms: _271  and  _273
REMARK  112  A    between atoms: _273  and  _274
REMARK  113  A    between atoms: _273  and  _276
REMARK  114  A    between atoms: _277  and  _278
REMARK  115  A    between atoms: _278  and  _279
REMARK  116  A    between atoms: _288  and  _290
REMARK  117  A    between atoms: _290  and  _291
REMARK  118  A    between atoms: _290  and  _293
REMARK  119  A    between atoms: _293  and  _294
REMARK  120  A    between atoms: _299  and  _301
REMARK  121  A    between atoms: _301  and  _302
REMARK  122  A    between atoms: _301  and  _304
REMARK  123  A    between atoms: _304  and  _305
REMARK  124  A    between atoms: _305  and  _306
REMARK  125  A    between atoms: _306  and  _307
REMARK  126  A    between atoms: _316  and  _318
REMARK  127  A    between atoms: _318  and  _319
REMARK  128  A    between atoms: _318  and  _321
REMARK  129  A    between atoms: _321  and  _322
REMARK  130  A    between atoms: _325  and  _327
REMARK  131  A    between atoms: _327  and  _328
REMARK  132  A    between atoms: _327  and  _330
REMARK  133  A    between atoms: _330  and  _331
REMARK  134  A    between atoms: _334  and  _336
REMARK  135  A    between atoms: _336  and  _337
REMARK  136  A    between atoms: _336  and  _339
REMARK  137  A    between atoms: _339  and  _340
REMARK  138  A    between atoms: _343  and  _345
REMARK  139  A    between atoms: _345  and  _346
REMARK  140  A    between atoms: _345  and  _348
REMARK  141  A    between atoms: _348  and  _349
REMARK  142  A    between atoms: _352  and  _354
REMARK  143  A    between atoms: _354  and  _355
REMARK  144  A    between atoms: _357  and  _359
REMARK  145  A    between atoms: _359  and  _360
REMARK  146  A    between atoms: _363  and  _365
REMARK  147  A    between atoms: _365  and  _366
REMARK  148  A    between atoms: _365  and  _368
REMARK  149  A    between atoms: _368  and  _369
REMARK  150  A    between atoms: _372  and  _374
REMARK  151  A    between atoms: _374  and  _375
REMARK  152  A    between atoms: _374  and  _377
REMARK  153  A    between atoms: _377  and  _378
REMARK  154  A    between atoms: _381  and  _383
REMARK  155  A    between atoms: _383  and  _384
REMARK  156  A    between atoms: _383  and  _386
REMARK  157  A    between atoms: _386  and  _387
REMARK  158  A    between atoms: _390  and  _392
REMARK  159  A    between atoms: _392  and  _393
REMARK  160  A    between atoms: _392  and  _395
REMARK  161  A    between atoms: _398  and  _400
REMARK  162  A    between atoms: _400  and  _401
REMARK  163  A    between atoms: _400  and  _403
REMARK  164  A    between atoms: _403  and  _404
REMARK  165  A    between atoms: _407  and  _409
REMARK  166  A    between atoms: _409  and  _410
REMARK  167  A    between atoms: _409  and  _412
REMARK  168  A    between atoms: _412  and  _413
REMARK  169  A    between atoms: _413  and  _414
REMARK  170  A    between atoms: _414  and  _415
REMARK  171  A    between atoms: _415  and  _416
REMARK  172  A    between atoms: _420  and  _422
REMARK  173  A    between atoms: _422  and  _423
REMARK  174  A    between atoms: _422  and  _425
REMARK  175  A    between atoms: _425  and  _426
REMARK  176  A    between atoms: _426  and  _427
REMARK  177  A    between atoms: _429  and  _431
REMARK  178  A    between atoms: _431  and  _432
REMARK  179  A    between atoms: _431  and  _434
REMARK  180  A    between atoms: _434  and  _435
REMARK  181  A    between atoms: _438  and  _440
REMARK  182  A    between atoms: _440  and  _441
REMARK  183  A    between atoms: _443  and  _445
REMARK  184  A    between atoms: _445  and  _446
REMARK  185  A    between atoms: _448  and  _450
REMARK  186  A    between atoms: _450  and  _451
REMARK  187  A    between atoms: _450  and  _453
REMARK  188  A    between atoms: _453  and  _454
REMARK  189  A    between atoms: _457  and  _459
REMARK  190  A    between atoms: _459  and  _460
REMARK  191  A    between atoms: _462  and  _464
REMARK  192  A    between atoms: _464  and  _465
REMARK  193  A    between atoms: _467  and  _469
REMARK  194  A    between atoms: _469  and  _470
REMARK  195  A    between atoms: _469  and  _472
REMARK  196  A    between atoms: _472  and  _473
REMARK  197  A    between atoms: _479  and  _481
REMARK  198  A    between atoms: _481  and  _482
REMARK  199  A    between atoms: _481  and  _484
REMARK  200  A    between atoms: _487  and  _489
REMARK  201  A    between atoms: _489  and  _490
REMARK  202  A    between atoms: _489  and  _492
REMARK  203  A    between atoms: _495  and  _497
REMARK  204  A    between atoms: _497  and  _498
REMARK  205  A    between atoms: _497  and  _500
REMARK  206  A    between atoms: _500  and  _501
REMARK  207  A    between atoms: _504  and  _506
REMARK  208  A    between atoms: _506  and  _507
REMARK  209  A    between atoms: _506  and  _509
REMARK  210  A    between atoms: _509  and  _510
REMARK  211  A    between atoms: _514  and  _515
REMARK  212  A    between atoms: _520  and  _522
REMARK  213  A    between atoms: _522  and  _523
REMARK  214  A    between atoms: _522  and  _525
REMARK  215  A    between atoms: _528  and  _530
REMARK  216  A    between atoms: _530  and  _531
REMARK  217  A    between atoms: _530  and  _533
REMARK  218  A    between atoms: _533  and  _534
REMARK  219  A    between atoms: _539  and  _541
REMARK  220  A    between atoms: _541  and  _542
REMARK  221  A    between atoms: _541  and  _544
REMARK  222  A    between atoms: _544  and  _545
REMARK  223  A    between atoms: _548  and  _550
REMARK  224  A    between atoms: _550  and  _551
REMARK  225  A    between atoms: _550  and  _553
REMARK  226  A    between atoms: _553  and  _554
REMARK  227  A    between atoms: _557  and  _559
REMARK  228  A    between atoms: _559  and  _560
REMARK  229  A    between atoms: _562  and  _564
REMARK  230  A    between atoms: _564  and  _565
REMARK  231  A    between atoms: _564  and  _567
REMARK  232  A    between atoms: _567  and  _568
REMARK  233  A    between atoms: _568  and  _569
REMARK  234  A    between atoms: _569  and  _570
REMARK  235  A    between atoms: _579  and  _581
REMARK  236  A    between atoms: _581  and  _582
REMARK  237  A    between atoms: _581  and  _584
REMARK  238  A    between atoms: _584  and  _585
REMARK                            x       y       z     vdW  Elec       q    Type
REMARK                         _______ _______ _______ _____ _____    ______ ____
ROOT
ATOM      1  CA  VAL A   1      12.866  33.576  23.641  0.00  0.00    +0.133 C 
ENDROOT
BRANCH   1   2
ATOM      2  CB  VAL A   1      13.254  32.089  23.708  0.00  0.00    +0.023 C 
ATOM      3  CG2 VAL A   1      14.687  31.889  23.262  0.00  0.00    +0.002 C 
ATOM      4  CG1 VAL A   1      12.318  31.250  22.864  0.00  0.00    +0.002 C 
ENDBRANCH   1   2
BRANCH   1   5
ATOM      5  N   VAL A   1      13.032  34.129  22.289  0.00  0.00    -0.239 NA
ATOM      6  H   VAL A   1      13.987  34.358  21.946  0.00  0.00    +0.142 HD
ENDBRANCH   1   5
BRANCH   1   7
ATOM      7  C   VAL A   1      13.712  34.380  24.616  0.00  0.00    +0.224 C 
ATOM      8  O   VAL A   1      14.509  35.208  24.174  0.00  0.00    -0.287 OA
ENDBRANCH   1   7
TORSDOF 3
REMARK  Name = ../refined-set-2016/3nuj/3nuj_pocket.pdb
REMARK  238 active torsions:
REMARK  status: ('A' for Active; 'I' for Inactive)
REMARK    1  A    between atoms: _1  and  _3
REMARK    2  A    between atoms: _3  and  _4
REMARK    3  A    between atoms: _3  and  _6
REMARK    4  A    between atoms: _6  and  _7
REMARK    5  A    between atoms: _7  and  _8
REMARK    6  A    between atoms: _8  and  _9
REMARK    7  A    between atoms: _18  and  _20
REMARK    8  A    between atoms: _20  and  _21
REMARK    9  A    between atoms: _20  and  _23
REMARK   10  A    between atoms: _23  and  _24
REMARK   11  A    between atoms: _27  and  _29
REMARK   12  A    between atoms: _29  and  _30
REMARK   13  A    between atoms: _29  and  _32
REMARK   14  A    between atoms: _32  and  _33
REMARK   15  A    between atoms: _36  and  _38
REMARK   16  A    between atoms: _38  and  _39
REMARK   17  A    between atoms: _38  and  _41
REMARK   18  A    between atoms: _41  and  _42
REMARK   19  A    between atoms: _45  and  _47
REMARK   20  A    between atoms: _47  and  _48
REMARK   21  A    between atoms: _47  and  _50
REMARK   22  A    between atoms: _50  and  _51
REMARK   23  A    between atoms: _54  and  _56
REMARK   24  A    between atoms: _56  and  _57
REMARK   25  A    between atoms: _59  and  _61
REMARK   26  A    between atoms: _61  and  _62
REMARK   27  A    between atoms: _65  and  _67
REMARK   28  A    between atoms: _67  and  _68
REMARK   29  A    between atoms: _67  and  _70
REMARK   30  A    between atoms: _70  and  _71
REMARK   31  A    between atoms: _74  and  _76
REMARK   32  A    between atoms: _76  and  _77
REMARK   33  A    between atoms: _76  and  _79
REMARK   34  A    between atoms: _79  and  _80
REMARK   35  A    between atoms: _83  and  _85
REMARK   36  A    between atoms: _85  and  _86
REMARK   37  A    between atoms: _85  and  _88
REMARK   38  A    between atoms: _88  and  _89
REMARK   39  A    between atoms: _92  and  _94
REMARK   40  A    between atoms: _94  and  _95
REMARK   41  A    between atoms: _94  and  _97
REMARK   42  A    between atoms: _100  and  _102
REMARK   43  A    between atoms: _102  and  _103
REMARK   44  A    between atoms: _102  and  _105
REMARK   45  A    between atoms: _105  and  _106
REMARK   46  A    between atoms: _109  and  _111
REMARK   47  A    between atoms: _111  and  _112
REMARK   48  A    between atoms: _111  and  _114
REMARK   49  A    between atoms: _114  and  _115
REMARK   50  A    between atoms: _115  and  _116
REMARK   51  A    between atoms: _116  and  _117
REMARK   52  A    between atoms: _117  and  _118
REMARK   53  A    between atoms: _122  and  _124
REMARK   54  A    between atoms: _124  and  _125
REMARK   55  A    between atoms: _124  and  _127
REMARK   56  A    between atoms: _127  and  _128
REMARK   57  A    between atoms: _128  and  _129
REMARK   58  A    between atoms: _131  and  _133
REMARK   59  A    between atoms: _133  and  _134
REMARK   60  A    between atoms: _133  and  _136
REMARK   61  A    between atoms: _136  and  _137
REMARK   62  A    between atoms: _140  and  _142
REMARK   63  A    between atoms: _142  and  _143
REMARK   64  A    between atoms: _145  and  _147
REMARK   65  A    between atoms: _147  and  _148
REMARK   66  A    between atoms: _150  and  _152
REMARK   67  A    between atoms: _152  and  _153
REMARK   68  A    between atoms: _152  and  _155
REMARK   69  A    between atoms: _155  and  _156
REMARK   70  A    between atoms: _159  and  _161
REMARK   71  A    between atoms: _161  and  _162
REMARK   72  A    between atoms: _164  and  _166
REMARK   73  A    between atoms: _166  and  _167
REMARK   74  A    between atoms: _169  and  _171
REMARK   75  A    between atoms: _171  and  _172
REMARK   76  A    between atoms: _171  and  _174
REMARK   77  A    between atoms: _174  and  _175
REMARK   78  A    between atoms: _181  and  _183
REMARK   79  A    between atoms: _183  and  _184
REMARK   80  A    between atoms: _183  and  _186
REMARK   81  A    between atoms: _189  and  _191
REMARK   82  A    between atoms: _191  and  _192
REMARK   83  A    between atoms: _191  and  _194
REMARK   84  A    between atoms: _197  and  _199
REMARK   85  A    between atoms: _199  and  _200
REMARK   86  A    between atoms: _199  and  _202
REMARK   87  A    between atoms: _202  and  _203
REMARK   88  A    between atoms: _207  and  _208
REMARK   89  A    between atoms: _213  and  _215
REMARK   90  A    between atoms: _215  and  _216
REMARK   91  A    between atoms: _215  and  _218
REMARK   92  A    between atoms: _218  and  _219
REMARK   93  A    between atoms: _223  and  _224
REMARK   94  A    between atoms: _229  and  _231
REMARK   95  A    between atoms: _231  and  _232
REMARK   96  A    between atoms: _231  and  _234
REMARK   97  A    between atoms: _237  and  _239
REMARK   98  A    between atoms: _239  and  _240
REMARK   99  A    between atoms: _239  and  _242
REMARK  100  A    between atoms: _242  and  _243
REMARK  101  A    between atoms: _248  and  _250
REMARK  102  A    between atoms: _250  and  _251
REMARK  103  A    between atoms: _250  and  _253
REMARK  104  A    between atoms: _253  and  _254
REMARK  105  A    between atoms: _257  and  _259
REMARK  106  A    between atoms: _259  and  _260
REMARK  107  A    between atoms: _259  and  _262
REMARK  108  A    between atoms: _262  and  _263
REMARK  109  A    between atoms: _266  and  _268
REMARK  110  A    between atoms: _268  and  _269
REMARK  111  A    between atoms: _271  and  _273
REMARK  112  A    between atoms: _273  and  _274
REMARK  113  A    between atoms: _273  and  _276
REMARK  114  A    between atoms: _277  and  _278
REMARK  115  A    between atoms: _278  and  _279
REMARK  116  A    between atoms: _288  and  _290
REMARK  117  A    between atoms: _290  and  _291
REMARK  118  A    between atoms: _290  and  _293
REMARK  119  A    between atoms: _293  and  _294
REMARK  120  A    between atoms: _299  and  _301
REMARK  121  A    between atoms: _301  and  _302
REMARK  122  A    between atoms: _301  and  _304
REMARK  123  A    between atoms: _304  and  _305
REMARK  124  A    between atoms: _305  and  _306
REMARK  125  A    between atoms: _306  and  _307
REMARK  126  A    between atoms: _316  and  _318
REMARK  127  A    between atoms: _318  and  _319
REMARK  128  A    between atoms: _318  and  _321
REMARK  129  A    between atoms: _321  and  _322
REMARK  130  A    between atoms: _325  and  _327
REMARK  131  A    between atoms: _327  and  _328
REMARK  132  A    between atoms: _327  and  _330
REMARK  133  A    between atoms: _330  and  _331
REMARK  134  A    between atoms: _334  and  _336
REMARK  135  A    between atoms: _336  and  _337
REMARK  136  A    between atoms: _336  and  _339
REMARK  137  A    between atoms: _339  and  _340
REMARK  138  A    between atoms: _343  and  _345
REMARK  139  A    between atoms: _345  and  _346
REMARK  140  A    between atoms: _345  and  _348
REMARK  141  A    between atoms: _348  and  _349
REMARK  142  A    between atoms: _352  and  _354
REMARK  143  A    between atoms: _354  and  _355
REMARK  144  A    between atoms: _357  and  _359
REMARK  145  A    between atoms: _359  and  _360
REMARK  146  A    between atoms: _363  and  _365
REMARK  147  A    between atoms: _365  and  _366
REMARK  148  A    between atoms: _365  and  _368
REMARK  149  A    between atoms: _368  and  _369
REMARK  150  A    between atoms: _372  and  _374
REMARK  151  A    between atoms: _374  and  _375
REMARK  152  A    between atoms: _374  and  _377
REMARK  153  A    between atoms: _377  and  _378
REMARK  154  A    between atoms: _381  and  _383
REMARK  155  A    between atoms: _383  and  _384
REMARK  156  A    between atoms: _383  and  _386
REMARK  157  A    between atoms: _386  and  _387
REMARK  158  A    between atoms: _390  and  _392
REMARK  159  A    between atoms: _392  and  _393
REMARK  160  A    between atoms: _392  and  _395
REMARK  161  A    between atoms: _398  and  _400
REMARK  162  A    between atoms: _400  and  _401
REMARK  163  A    between atoms: _400  and  _403
REMARK  164  A    between atoms: _403  and  _404
REMARK  165  A    between atoms: _407  and  _409
REMARK  166  A    between atoms: _409  and  _410
REMARK  167  A    between atoms: _409  and  _412
REMARK  168  A    between atoms: _412  and  _413
REMARK  169  A    between atoms: _413  and  _414
REMARK  170  A    between atoms: _414  and  _415
REMARK  171  A    between atoms: _415  and  _416
REMARK  172  A    between atoms: _420  and  _422
REMARK  173  A    between atoms: _422  and  _423
REMARK  174  A    between atoms: _422  and  _425
REMARK  175  A    between atoms: _425  and  _426
REMARK  176  A    between atoms: _426  and  _427
REMARK  177  A    between atoms: _429  and  _431
REMARK  178  A    between atoms: _431  and  _432
REMARK  179  A    between atoms: _431  and  _434
REMARK  180  A    between atoms: _434  and  _435
REMARK  181  A    between atoms: _438  and  _440
REMARK  182  A    between atoms: _440  and  _441
REMARK  183  A    between atoms: _443  and  _445
REMARK  184  A    between atoms: _445  and  _446
REMARK  185  A    between atoms: _448  and  _450
REMARK  186  A    between atoms: _450  and  _451
REMARK  187  A    between atoms: _450  and  _453
REMARK  188  A    between atoms: _453  and  _454
REMARK  189  A    between atoms: _457  and  _459
REMARK  190  A    between atoms: _459  and  _460
REMARK  191  A    between atoms: _462  and  _464
REMARK  192  A    between atoms: _464  and  _465
REMARK  193  A    between atoms: _467  and  _469
REMARK  194  A    between atoms: _469  and  _470
REMARK  195  A    between atoms: _469  and  _472
REMARK  196  A    between atoms: _472  and  _473
REMARK  197  A    between atoms: _479  and  _481
REMARK  198  A    between atoms: _481  and  _482
REMARK  199  A    between atoms: _481  and  _484
REMARK  200  A    between atoms: _487  and  _489
REMARK  201  A    between atoms: _489  and  _490
REMARK  202  A    between atoms: _489  and  _492
REMARK  203  A    between atoms: _495  and  _497
REMARK  204  A    between atoms: _497  and  _498
REMARK  205  A    between atoms: _497  and  _500
REMARK  206  A    between atoms: _500  and  _501
REMARK  207  A    between atoms: _504  and  _506
REMARK  208  A    between atoms: _506  and  _507
REMARK  209  A    between atoms: _506  and  _509
REMARK  210  A    between atoms: _509  and  _510
REMARK  211  A    between atoms: _514  and  _515
REMARK  212  A    between atoms: _520  and  _522
REMARK  213  A    between atoms: _522  and  _523
REMARK  214  A    between atoms: _522  and  _525
REMARK  215  A    between atoms: _528  and  _530
REMARK  216  A    between atoms: _530  and  _531
REMARK  217  A    between atoms: _530  and  _533
REMARK  218  A    between atoms: _533  and  _534
REMARK  219  A    between atoms: _539  and  _541
REMARK  220  A    between atoms: _541  and  _542
REMARK  221  A    between atoms: _541  and  _544
REMARK  222  A    between atoms: _544  and  _545
REMARK  223  A    between atoms: _548  and  _550
REMARK  224  A    between atoms: _550  and  _551
REMARK  225  A    between atoms: _550  and  _553
REMARK  226  A    between atoms: _553  and  _554
REMARK  227  A    between atoms: _557  and  _559
REMARK  228  A    between atoms: _559  and  _560
REMARK  229  A    between atoms: _562  and  _564
REMARK  230  A    between atoms: _564  and  _565
REMARK  231  A    between atoms: _564  and  _567
REMARK  232  A    between atoms: _567  and  _568
REMARK  233  A    between atoms: _568  and  _569
REMARK  234  A    between atoms: _569  and  _570
REMARK  235  A    between atoms: _579  and  _581
REMARK  236  A    between atoms: _581  and  _582
REMARK  237  A    between atoms: _581  and  _584
REMARK  238  A    between atoms: _584  and  _585
REMARK                            x       y       z     vdW  Elec       q    Type
REMARK                         _______ _______ _______ _____ _____    ______ ____
ROOT
ATOM      1  CA  LEU A   1      15.680  29.662  27.398  0.00  0.00    +0.133 C 
ENDROOT
BRANCH   1   2
ATOM      2  N   LEU A   1      16.513  28.768  28.166  0.00  0.00    -0.239 NA
ATOM      3  H   LEU A   1      16.605  27.781  27.852  0.00  0.00    +0.142 HD
ENDBRANCH   1   2
BRANCH   1   4
ATOM      4  C   LEU A   1      14.234  29.461  27.857  0.00  0.00    +0.224 C 
ATOM      5  O   LEU A   1      13.815  28.319  28.064  0.00  0.00    -0.287 OA
ENDBRANCH   1   4
BRANCH   1   6
ATOM      6  CB  LEU A   1      15.767  29.434  25.869  0.00  0.00    +0.025 C 
BRANCH   6   7
ATOM      7  CG  LEU A   1      17.208  29.293  25.344  0.00  0.00    +0.002 C 
ATOM      8  CD2 LEU A   1      18.013  30.560  25.606  0.00  0.00    +0.000 C 
ATOM      9  CD1 LEU A   1      17.223  28.959  23.873  0.00  0.00    +0.000 C 
ENDBRANCH   6   7
ENDBRANCH   1   6
TORSDOF 4
REMARK  Name = ../refined-set-2016/3nuj/3nuj_pocket.pdb
REMARK  238 active torsions:
REMARK  status: ('A' for Active; 'I' for Inactive)
REMARK    1  A    between atoms: _1  and  _3
REMARK    2  A    between atoms: _3  and  _4
REMARK    3  A    between atoms: _3  and  _6
REMARK    4  A    between atoms: _6  and  _7
REMARK    5  A    between atoms: _7  and  _8
REMARK    6  A    between atoms: _8  and  _9
REMARK    7  A    between atoms: _18  and  _20
REMARK    8  A    between atoms: _20  and  _21
REMARK    9  A    between atoms: _20  and  _23
REMARK   10  A    between atoms: _23  and  _24
REMARK   11  A    between atoms: _27  and  _29
REMARK   12  A    between atoms: _29  and  _30
REMARK   13  A    between atoms: _29  and  _32
REMARK   14  A    between atoms: _32  and  _33
REMARK   15  A    between atoms: _36  and  _38
REMARK   16  A    between atoms: _38  and  _39
REMARK   17  A    between atoms: _38  and  _41
REMARK   18  A    between atoms: _41  and  _42
REMARK   19  A    between atoms: _45  and  _47
REMARK   20  A    between atoms: _47  and  _48
REMARK   21  A    between atoms: _47  and  _50
REMARK   22  A    between atoms: _50  and  _51
REMARK   23  A    between atoms: _54  and  _56
REMARK   24  A    between atoms: _56  and  _57
REMARK   25  A    between atoms: _59  and  _61
REMARK   26  A    between atoms: _61  and  _62
REMARK   27  A    between atoms: _65  and  _67
REMARK   28  A    between atoms: _67  and  _68
REMARK   29  A    between atoms: _67  and  _70
REMARK   30  A    between atoms: _70  and  _71
REMARK   31  A    between atoms: _74  and  _76
REMARK   32  A    between atoms: _76  and  _77
REMARK   33  A    between atoms: _76  and  _79
REMARK   34  A    between atoms: _79  and  _80
REMARK   35  A    between atoms: _83  and  _85
REMARK   36  A    between atoms: _85  and  _86
REMARK   37  A    between atoms: _85  and  _88
REMARK   38  A    between atoms: _88  and  _89
REMARK   39  A    between atoms: _92  and  _94
REMARK   40  A    between atoms: _94  and  _95
REMARK   41  A    between atoms: _94  and  _97
REMARK   42  A    between atoms: _100  and  _102
REMARK   43  A    between atoms: _102  and  _103
REMARK   44  A    between atoms: _102  and  _105
REMARK   45  A    between atoms: _105  and  _106
REMARK   46  A    between atoms: _109  and  _111
REMARK   47  A    between atoms: _111  and  _112
REMARK   48  A    between atoms: _111  and  _114
REMARK   49  A    between atoms: _114  and  _115
REMARK   50  A    between atoms: _115  and  _116
REMARK   51  A    between atoms: _116  and  _117
REMARK   52  A    between atoms: _117  and  _118
REMARK   53  A    between atoms: _122  and  _124
REMARK   54  A    between atoms: _124  and  _125
REMARK   55  A    between atoms: _124  and  _127
REMARK   56  A    between atoms: _127  and  _128
REMARK   57  A    between atoms: _128  and  _129
REMARK   58  A    between atoms: _131  and  _133
REMARK   59  A    between atoms: _133  and  _134
REMARK   60  A    between atoms: _133  and  _136
REMARK   61  A    between atoms: _136  and  _137
REMARK   62  A    between atoms: _140  and  _142
REMARK   63  A    between atoms: _142  and  _143
REMARK   64  A    between atoms: _145  and  _147
REMARK   65  A    between atoms: _147  and  _148
REMARK   66  A    between atoms: _150  and  _152
REMARK   67  A    between atoms: _152  and  _153
REMARK   68  A    between atoms: _152  and  _155
REMARK   69  A    between atoms: _155  and  _156
REMARK   70  A    between atoms: _159  and  _161
REMARK   71  A    between atoms: _161  and  _162
REMARK   72  A    between atoms: _164  and  _166
REMARK   73  A    between atoms: _166  and  _167
REMARK   74  A    between atoms: _169  and  _171
REMARK   75  A    between atoms: _171  and  _172
REMARK   76  A    between atoms: _171  and  _174
REMARK   77  A    between atoms: _174  and  _175
REMARK   78  A    between atoms: _181  and  _183
REMARK   79  A    between atoms: _183  and  _184
REMARK   80  A    between atoms: _183  and  _186
REMARK   81  A    between atoms: _189  and  _191
REMARK   82  A    between atoms: _191  and  _192
REMARK   83  A    between atoms: _191  and  _194
REMARK   84  A    between atoms: _197  and  _199
REMARK   85  A    between atoms: _199  and  _200
REMARK   86  A    between atoms: _199  and  _202
REMARK   87  A    between atoms: _202  and  _203
REMARK   88  A    between atoms: _207  and  _208
REMARK   89  A    between atoms: _213  and  _215
REMARK   90  A    between atoms: _215  and  _216
REMARK   91  A    between atoms: _215  and  _218
REMARK   92  A    between atoms: _218  and  _219
REMARK   93  A    between atoms: _223  and  _224
REMARK   94  A    between atoms: _229  and  _231
REMARK   95  A    between atoms: _231  and  _232
REMARK   96  A    between atoms: _231  and  _234
REMARK   97  A    between atoms: _237  and  _239
REMARK   98  A    between atoms: _239  and  _240
REMARK   99  A    between atoms: _239  and  _242
REMARK  100  A    between atoms: _242  and  _243
REMARK  101  A    between atoms: _248  and  _250
REMARK  102  A    between atoms: _250  and  _251
REMARK  103  A    between atoms: _250  and  _253
REMARK  104  A    between atoms: _253  and  _254
REMARK  105  A    between atoms: _257  and  _259
REMARK  106  A    between atoms: _259  and  _260
REMARK  107  A    between atoms: _259  and  _262
REMARK  108  A    between atoms: _262  and  _263
REMARK  109  A    between atoms: _266  and  _268
REMARK  110  A    between atoms: _268  and  _269
REMARK  111  A    between atoms: _271  and  _273
REMARK  112  A    between atoms: _273  and  _274
REMARK  113  A    between atoms: _273  and  _276
REMARK  114  A    between atoms: _277  and  _278
REMARK  115  A    between atoms: _278  and  _279
REMARK  116  A    between atoms: _288  and  _290
REMARK  117  A    between atoms: _290  and  _291
REMARK  118  A    between atoms: _290  and  _293
REMARK  119  A    between atoms: _293  and  _294
REMARK  120  A    between atoms: _299  and  _301
REMARK  121  A    between atoms: _301  and  _302
REMARK  122  A    between atoms: _301  and  _304
REMARK  123  A    between atoms: _304  and  _305
REMARK  124  A    between atoms: _305  and  _306
REMARK  125  A    between atoms: _306  and  _307
REMARK  126  A    between atoms: _316  and  _318
REMARK  127  A    between atoms: _318  and  _319
REMARK  128  A    between atoms: _318  and  _321
REMARK  129  A    between atoms: _321  and  _322
REMARK  130  A    between atoms: _325  and  _327
REMARK  131  A    between atoms: _327  and  _328
REMARK  132  A    between atoms: _327  and  _330
REMARK  133  A    between atoms: _330  and  _331
REMARK  134  A    between atoms: _334  and  _336
REMARK  135  A    between atoms: _336  and  _337
REMARK  136  A    between atoms: _336  and  _339
REMARK  137  A    between atoms: _339  and  _340
REMARK  138  A    between atoms: _343  and  _345
REMARK  139  A    between atoms: _345  and  _346
REMARK  140  A    between atoms: _345  and  _348
REMARK  141  A    between atoms: _348  and  _349
REMARK  142  A    between atoms: _352  and  _354
REMARK  143  A    between atoms: _354  and  _355
REMARK  144  A    between atoms: _357  and  _359
REMARK  145  A    between atoms: _359  and  _360
REMARK  146  A    between atoms: _363  and  _365
REMARK  147  A    between atoms: _365  and  _366
REMARK  148  A    between atoms: _365  and  _368
REMARK  149  A    between atoms: _368  and  _369
REMARK  150  A    between atoms: _372  and  _374
REMARK  151  A    between atoms: _374  and  _375
REMARK  152  A    between atoms: _374  and  _377
REMARK  153  A    between atoms: _377  and  _378
REMARK  154  A    between atoms: _381  and  _383
REMARK  155  A    between atoms: _383  and  _384
REMARK  156  A    between atoms: _383  and  _386
REMARK  157  A    between atoms: _386  and  _387
REMARK  158  A    between atoms: _390  and  _392
REMARK  159  A    between atoms: _392  and  _393
REMARK  160  A    between atoms: _392  and  _395
REMARK  161  A    between atoms: _398  and  _400
REMARK  162  A    between atoms: _400  and  _401
REMARK  163  A    between atoms: _400  and  _403
REMARK  164  A    between atoms: _403  and  _404
REMARK  165  A    between atoms: _407  and  _409
REMARK  166  A    between atoms: _409  and  _410
REMARK  167  A    between atoms: _409  and  _412
REMARK  168  A    between atoms: _412  and  _413
REMARK  169  A    between atoms: _413  and  _414
REMARK  170  A    between atoms: _414  and  _415
REMARK  171  A    between atoms: _415  and  _416
REMARK  172  A    between atoms: _420  and  _422
REMARK  173  A    between atoms: _422  and  _423
REMARK  174  A    between atoms: _422  and  _425
REMARK  175  A    between atoms: _425  and  _426
REMARK  176  A    between atoms: _426  and  _427
REMARK  177  A    between atoms: _429  and  _431
REMARK  178  A    between atoms: _431  and  _432
REMARK  179  A    between atoms: _431  and  _434
REMARK  180  A    between atoms: _434  and  _435
REMARK  181  A    between atoms: _438  and  _440
REMARK  182  A    between atoms: _440  and  _441
REMARK  183  A    between atoms: _443  and  _445
REMARK  184  A    between atoms: _445  and  _446
REMARK  185  A    between atoms: _448  and  _450
REMARK  186  A    between atoms: _450  and  _451
REMARK  187  A    between atoms: _450  and  _453
REMARK  188  A    between atoms: _453  and  _454
REMARK  189  A    between atoms: _457  and  _459
REMARK  190  A    between atoms: _459  and  _460
REMARK  191  A    between atoms: _462  and  _464
REMARK  192  A    between atoms: _464  and  _465
REMARK  193  A    between atoms: _467  and  _469
REMARK  194  A    between atoms: _469  and  _470
REMARK  195  A    between atoms: _469  and  _472
REMARK  196  A    between atoms: _472  and  _473
REMARK  197  A    between atoms: _479  and  _481
REMARK  198  A    between atoms: _481  and  _482
REMARK  199  A    between atoms: _481  and  _484
REMARK  200  A    between atoms: _487  and  _489
REMARK  201  A    between atoms: _489  and  _490
REMARK  202  A    between atoms: _489  and  _492
REMARK  203  A    between atoms: _495  and  _497
REMARK  204  A    between atoms: _497  and  _498
REMARK  205  A    between atoms: _497  and  _500
REMARK  206  A    between atoms: _500  and  _501
REMARK  207  A    between atoms: _504  and  _506
REMARK  208  A    between atoms: _506  and  _507
REMARK  209  A    between atoms: _506  and  _509
REMARK  210  A    between atoms: _509  and  _510
REMARK  211  A    between atoms: _514  and  _515
REMARK  212  A    between atoms: _520  and  _522
REMARK  213  A    between atoms: _522  and  _523
REMARK  214  A    between atoms: _522  and  _525
REMARK  215  A    between atoms: _528  and  _530
REMARK  216  A    between atoms: _530  and  _531
REMARK  217  A    between atoms: _530  and  _533
REMARK  218  A    between atoms: _533  and  _534
REMARK  219  A    between atoms: _539  and  _541
REMARK  220  A    between atoms: _541  and  _542
REMARK  221  A    between atoms: _541  and  _544
REMARK  222  A    between atoms: _544  and  _545
REMARK  223  A    between atoms: _548  and  _550
REMARK  224  A    between atoms: _550  and  _551
REMARK  225  A    between atoms: _550  and  _553
REMARK  226  A    between atoms: _553  and  _554
REMARK  227  A    between atoms: _557  and  _559
REMARK  228  A    between atoms: _559  and  _560
REMARK  229  A    between atoms: _562  and  _564
REMARK  230  A    between atoms: _564  and  _565
REMARK  231  A    between atoms: _564  and  _567
REMARK  232  A    between atoms: _567  and  _568
REMARK  233  A    between atoms: _568  and  _569
REMARK  234  A    between atoms: _569  and  _570
REMARK  235  A    between atoms: _579  and  _581
REMARK  236  A    between atoms: _581  and  _582
REMARK  237  A    between atoms: _581  and  _584
REMARK  238  A    between atoms: _584  and  _585
REMARK                            x       y       z     vdW  Elec       q    Type
REMARK                         _______ _______ _______ _____ _____    ______ ____
ROOT
ATOM      1  C   ILE A   5      14.487  20.669  26.748  0.00  0.00    +0.241 C 
ATOM      2  N   ILE A   6      15.172  19.570  27.045  0.00  0.00    -0.297 N 
ATOM      3  H   ILE A   6      14.702  18.648  26.939  0.00  0.00    +0.150 HD
ATOM      4  O   ILE A   5      14.936  21.782  27.001  0.00  0.00    -0.273 OA
ENDROOT
BRANCH   1   5
ATOM      5  CA  ILE A   5      13.123  20.522  26.089  0.00  0.00    +0.149 C 
BRANCH   5   8
ATOM      6  C   ASN A   4      11.047  20.621  27.380  0.00  0.00    +0.241 C 
ATOM      7  O   ASN A   4      10.872  19.403  27.360  0.00  0.00    -0.273 OA
ATOM      8  N   ILE A   5      12.092  21.216  26.842  0.00  0.00    -0.297 N 
ATOM      9  H   ILE A   5      12.185  22.245  26.964  0.00  0.00    +0.150 HD
BRANCH   6  10
ATOM     10  CA  ASN A   4      10.002  21.508  28.057  0.00  0.00    +0.158 C 
BRANCH  10  12
ATOM     11  C   VAL A   3       8.422  21.364  26.266  0.00  0.00    +0.241 C 
ATOM     12  N   ASN A   4       8.700  21.122  27.546  0.00  0.00    -0.297 N 
ATOM     13  H   ASN A   4       8.000  20.667  28.165  0.00  0.00    +0.150 HD
ATOM     14  O   VAL A   3       9.185  21.959  25.514  0.00  0.00    -0.273 OA
BRANCH  11  15
ATOM     15  CA  VAL A   3       7.081  20.859  25.752  0.00  0.00    +0.149 C 
BRANCH  15  18
ATOM     16  C   PRO A   2       5.478  21.728  24.107  0.00  0.00    +0.241 C 
ATOM     17  O   PRO A   2       4.532  21.154  24.622  0.00  0.00    -0.273 OA
ATOM     18  N   VAL A   3       6.706  21.659  24.591  0.00  0.00    -0.297 N 
ATOM     19  H   VAL A   3       7.450  22.208  24.115  0.00  0.00    +0.150 HD
BRANCH  16  23
ATOM     20  C   THR A   1       6.385  24.531  23.626  0.00  0.00    +0.244 C 
ATOM     21  O   THR A   1       5.595  24.553  24.564  0.00  0.00    -0.273 OA
ATOM     22  N   PRO A   2       6.302  23.596  22.698  0.00  0.00    -0.272 N 
ATOM     23  CA  PRO A   2       5.258  22.581  22.866  0.00  0.00    +0.152 C 
ATOM     24  CB  PRO A   2       5.393  21.771  21.596  0.00  0.00    +0.031 C 
ATOM     25  CG  PRO A   2       6.803  22.012  21.140  0.00  0.00    +0.024 C 
ATOM     26  CD  PRO A   2       7.103  23.454  21.479  0.00  0.00    +0.094 C 
BRANCH  20  27
ATOM     27  CA  THR A   1       7.458  25.588  23.443  0.00  0.00    +0.172 C 
BRANCH  27  28
ATOM     28  N   THR A   1       6.880  26.851  23.878  0.00  0.00    -0.236 NA
ATOM     29  H   THR A   1       6.323  26.860  24.757  0.00  0.00    +0.142 HD
ENDBRANCH  27  28
BRANCH  27  30
ATOM     30  CB  THR A   1       8.738  25.235  24.220  0.00  0.00    +0.135 C 
ATOM     31  CG2 THR A   1       8.514  25.117  25.715  0.00  0.00    +0.034 C 
BRANCH  30  32
ATOM     32  OG1 THR A   1       9.172  23.950  23.782  0.00  0.00    -0.383 OA
ATOM     33  HG1 THR A   1       8.463  23.283  23.965  0.00  0.00    +0.210 HD
ENDBRANCH  30  32
ENDBRANCH  27  30
ENDBRANCH  20  27
ENDBRANCH  16  23
ENDBRANCH  15  18
BRANCH  15  34
ATOM     34  CB  VAL A   3       7.186  19.368  25.409  0.00  0.00    +0.027 C 
ATOM     35  CG2 VAL A   3       7.326  18.492  26.639  0.00  0.00    +0.002 C 
ATOM     36  CG1 VAL A   3       8.364  19.167  24.467  0.00  0.00    +0.002 C 
ENDBRANCH  15  34
ENDBRANCH  11  15
ENDBRANCH  10  12
BRANCH  10  37
ATOM     37  CB  ASN A   4      10.068  21.305  29.563  0.00  0.00    +0.114 C 
BRANCH  37  38
ATOM     38  CG  ASN A   4       9.070  22.166  30.312  0.00  0.00    +0.222 C 
ATOM     39  ND2 ASN A   4       8.475  21.578  31.332  0.00  0.00    -0.329 N 
ATOM     40 HD21 ASN A   4       7.788  22.106  31.908  0.00  0.00    +0.145 HD
ATOM     41 HD22 ASN A   4       8.693  20.587  31.560  0.00  0.00    +0.145 HD
ATOM     42  OD1 ASN A   4       8.914  23.327  29.924  0.00  0.00    -0.275 OA
ENDBRANCH  37  38
ENDBRANCH  10  37
ENDBRANCH   6  10
ENDBRANCH   5   8
BRANCH   5  43
ATOM     43  CB  ILE A   5      13.249  21.159  24.677  0.00  0.00    +0.027 C 
ATOM     44  CG2 ILE A   5      14.447  20.585  23.975  0.00  0.00    +0.002 C 
BRANCH  43  45
ATOM     45  CG1 ILE A   5      11.976  21.062  23.840  0.00  0.00    +0.002 C 
ATOM     46  CD1 ILE A   5      12.103  21.988  22.638  0.00  0.00    +0.000 C 
ENDBRANCH  43  45
ENDBRANCH   5  43
ENDBRANCH   1   5
BRANCH   2  47
ATOM     47  CA  ILE A   6      16.535  19.598  27.507  0.00  0.00    +0.149 C 
BRANCH  47  48
ATOM     48  C   ILE A   6      17.410  19.345  26.288  0.00  0.00    +0.241 C 
ATOM     49  N   GLY A   7      18.154  20.360  25.879  0.00  0.00    -0.295 N 
ATOM     50  H   GLY A   7      18.119  21.241  26.431  0.00  0.00    +0.150 HD
ATOM     51  O   ILE A   6      17.354  18.237  25.761  0.00  0.00    -0.273 OA
BRANCH  49  52
ATOM     52  CA  GLY A   7      18.998  20.326  24.735  0.00  0.00    +0.176 C 
BRANCH  52  53
ATOM     53  C   GLY A   7      20.426  19.996  25.027  0.00  0.00    +0.243 C 
ATOM     54  O   GLY A   7      20.790  19.767  26.171  0.00  0.00    -0.273 OA
ATOM     55  N   ARG A   8      21.247  20.014  23.986  0.00  0.00    -0.297 N 
ATOM     56  H   ARG A   8      20.910  20.366  23.067  0.00  0.00    +0.150 HD
BRANCH  55  57
ATOM     57  CA  ARG A   8      22.617  19.544  24.124  0.00  0.00    +0.149 C 
BRANCH  57  58
ATOM     58  C   ARG A   8      23.463  20.323  25.123  0.00  0.00    +0.241 C 
ATOM     59  O   ARG A   8      24.385  19.769  25.719  0.00  0.00    -0.273 OA
ATOM     60  N   ASN A   9      23.153  21.596  25.308  0.00  0.00    -0.298 N 
ATOM     61  H   ASN A   9      22.352  22.029  24.806  0.00  0.00    +0.150 HD
BRANCH  60  62
ATOM     62  CA  ASN A   9      23.968  22.376  26.237  0.00  0.00    +0.146 C 
BRANCH  62  63
ATOM     63  C   ASN A   9      23.909  21.786  27.637  0.00  0.00    +0.227 C 
ATOM     64  O   ASN A   9      24.897  21.882  28.343  0.00  0.00    -0.286 OA
ENDBRANCH  62  63
BRANCH  62  65
ATOM     65  CB  ASN A   9      23.517  23.829  26.300  0.00  0.00    +0.112 C 
BRANCH  65  66
ATOM     66  CG  ASN A   9      22.167  24.072  26.916  0.00  0.00    +0.222 C 
ATOM     67  ND2 ASN A   9      22.176  25.000  27.885  0.00  0.00    -0.329 N 
ATOM     68 HD21 ASN A   9      21.290  25.263  28.361  0.00  0.00    +0.145 HD
ATOM     69 HD22 ASN A   9      23.069  25.456  28.160  0.00  0.00    +0.145 HD
ATOM     70  OD1 ASN A   9      21.181  23.484  26.524  0.00  0.00    -0.275 OA
ENDBRANCH  65  66
ENDBRANCH  62  65
ENDBRANCH  60  62
ENDBRANCH  57  58
BRANCH  57  71
ATOM     71  CB  ARG A   8      23.334  19.525  22.778  0.00  0.00    +0.033 C 
BRANCH  71  72
ATOM     72  CG  ARG A   8      22.718  18.489  21.827  0.00  0.00    +0.045 C 
BRANCH  72  73
ATOM     73  CD  ARG A   8      23.559  18.300  20.576  0.00  0.00    +0.174 C 
BRANCH  73  74
ATOM     74  NE  ARG A   8      23.612  19.561  19.827  0.00  0.00    -0.265 N 
ATOM     75  CZ  ARG A   8      24.584  20.462  19.842  0.00  0.00    +0.342 C 
ATOM     76  NH2 ARG A   8      25.682  20.317  20.557  0.00  0.00    -0.292 N 
ATOM     77 HH21 ARG A   8      25.813  19.467  21.142  0.00  0.00    +0.255 HD
ATOM     78 HH22 ARG A   8      26.417  21.052  20.536  0.00  0.00    +0.255 HD
ATOM     79  NH1 ARG A   8      24.449  21.553  19.104  0.00  0.00    -0.292 N 
ATOM     80 HH11 ARG A   8      25.199  22.274  19.100  0.00  0.00    +0.255 HD
ATOM     81 HH12 ARG A   8      23.593  21.689  18.529  0.00  0.00    +0.255 HD
ATOM     82  HE  ARG A   8      22.796  19.771  19.217  0.00  0.00    +0.259 HD
ENDBRANCH  73  74
ENDBRANCH  72  73
ENDBRANCH  71  72
ENDBRANCH  57  71
ENDBRANCH  55  57
ENDBRANCH  52  53
ENDBRANCH  49  52
ENDBRANCH  47  48
BRANCH  47  83
ATOM     83  CB  ILE A   6      16.795  18.553  28.595  0.00  0.00    +0.027 C 
ATOM     84  CG2 ILE A   6      18.228  18.611  29.051  0.00  0.00    +0.002 C 
BRANCH  83  85
ATOM     85  CG1 ILE A   6      15.858  18.682  29.800  0.00  0.00    +0.002 C 
ATOM     86  CD1 ILE A   6      15.789  20.036  30.447  0.00  0.00    +0.000 C 
ENDBRANCH  83  85
ENDBRANCH  47  83
ENDBRANCH   2  47
TORSDOF 32
REMARK  Name = ../refined-set-2016/3nuj/3nuj_pocket.pdb
REMARK  238 active torsions:
REMARK  status: ('A' for Active; 'I' for Inactive)
REMARK    1  A    between atoms: _1  and  _3
REMARK    2  A    between atoms: _3  and  _4
REMARK    3  A    between atoms: _3  and  _6
REMARK    4  A    between atoms: _6  and  _7
REMARK    5  A    between atoms: _7  and  _8
REMARK    6  A    between atoms: _8  and  _9
REMARK    7  A    between atoms: _18  and  _20
REMARK    8  A    between atoms: _20  and  _21
REMARK    9  A    between atoms: _20  and  _23
REMARK   10  A    between atoms: _23  and  _24
REMARK   11  A    between atoms: _27  and  _29
REMARK   12  A    between atoms: _29  and  _30
REMARK   13  A    between atoms: _29  and  _32
REMARK   14  A    between atoms: _32  and  _33
REMARK   15  A    between atoms: _36  and  _38
REMARK   16  A    between atoms: _38  and  _39
REMARK   17  A    between atoms: _38  and  _41
REMARK   18  A    between atoms: _41  and  _42
REMARK   19  A    between atoms: _45  and  _47
REMARK   20  A    between atoms: _47  and  _48
REMARK   21  A    between atoms: _47  and  _50
REMARK   22  A    between atoms: _50  and  _51
REMARK   23  A    between atoms: _54  and  _56
REMARK   24  A    between atoms: _56  and  _57
REMARK   25  A    between atoms: _59  and  _61
REMARK   26  A    between atoms: _61  and  _62
REMARK   27  A    between atoms: _65  and  _67
REMARK   28  A    between atoms: _67  and  _68
REMARK   29  A    between atoms: _67  and  _70
REMARK   30  A    between atoms: _70  and  _71
REMARK   31  A    between atoms: _74  and  _76
REMARK   32  A    between atoms: _76  and  _77
REMARK   33  A    between atoms: _76  and  _79
REMARK   34  A    between atoms: _79  and  _80
REMARK   35  A    between atoms: _83  and  _85
REMARK   36  A    between atoms: _85  and  _86
REMARK   37  A    between atoms: _85  and  _88
REMARK   38  A    between atoms: _88  and  _89
REMARK   39  A    between atoms: _92  and  _94
REMARK   40  A    between atoms: _94  and  _95
REMARK   41  A    between atoms: _94  and  _97
REMARK   42  A    between atoms: _100  and  _102
REMARK   43  A    between atoms: _102  and  _103
REMARK   44  A    between atoms: _102  and  _105
REMARK   45  A    between atoms: _105  and  _106
REMARK   46  A    between atoms: _109  and  _111
REMARK   47  A    between atoms: _111  and  _112
REMARK   48  A    between atoms: _111  and  _114
REMARK   49  A    between atoms: _114  and  _115
REMARK   50  A    between atoms: _115  and  _116
REMARK   51  A    between atoms: _116  and  _117
REMARK   52  A    between atoms: _117  and  _118
REMARK   53  A    between atoms: _122  and  _124
REMARK   54  A    between atoms: _124  and  _125
REMARK   55  A    between atoms: _124  and  _127
REMARK   56  A    between atoms: _127  and  _128
REMARK   57  A    between atoms: _128  and  _129
REMARK   58  A    between atoms: _131  and  _133
REMARK   59  A    between atoms: _133  and  _134
REMARK   60  A    between atoms: _133  and  _136
REMARK   61  A    between atoms: _136  and  _137
REMARK   62  A    between atoms: _140  and  _142
REMARK   63  A    between atoms: _142  and  _143
REMARK   64  A    between atoms: _145  and  _147
REMARK   65  A    between atoms: _147  and  _148
REMARK   66  A    between atoms: _150  and  _152
REMARK   67  A    between atoms: _152  and  _153
REMARK   68  A    between atoms: _152  and  _155
REMARK   69  A    between atoms: _155  and  _156
REMARK   70  A    between atoms: _159  and  _161
REMARK   71  A    between atoms: _161  and  _162
REMARK   72  A    between atoms: _164  and  _166
REMARK   73  A    between atoms: _166  and  _167
REMARK   74  A    between atoms: _169  and  _171
REMARK   75  A    between atoms: _171  and  _172
REMARK   76  A    between atoms: _171  and  _174
REMARK   77  A    between atoms: _174  and  _175
REMARK   78  A    between atoms: _181  and  _183
REMARK   79  A    between atoms: _183  and  _184
REMARK   80  A    between atoms: _183  and  _186
REMARK   81  A    between atoms: _189  and  _191
REMARK   82  A    between atoms: _191  and  _192
REMARK   83  A    between atoms: _191  and  _194
REMARK   84  A    between atoms: _197  and  _199
REMARK   85  A    between atoms: _199  and  _200
REMARK   86  A    between atoms: _199  and  _202
REMARK   87  A    between atoms: _202  and  _203
REMARK   88  A    between atoms: _207  and  _208
REMARK   89  A    between atoms: _213  and  _215
REMARK   90  A    between atoms: _215  and  _216
REMARK   91  A    between atoms: _215  and  _218
REMARK   92  A    between atoms: _218  and  _219
REMARK   93  A    between atoms: _223  and  _224
REMARK   94  A    between atoms: _229  and  _231
REMARK   95  A    between atoms: _231  and  _232
REMARK   96  A    between atoms: _231  and  _234
REMARK   97  A    between atoms: _237  and  _239
REMARK   98  A    between atoms: _239  and  _240
REMARK   99  A    between atoms: _239  and  _242
REMARK  100  A    between atoms: _242  and  _243
REMARK  101  A    between atoms: _248  and  _250
REMARK  102  A    between atoms: _250  and  _251
REMARK  103  A    between atoms: _250  and  _253
REMARK  104  A    between atoms: _253  and  _254
REMARK  105  A    between atoms: _257  and  _259
REMARK  106  A    between atoms: _259  and  _260
REMARK  107  A    between atoms: _259  and  _262
REMARK  108  A    between atoms: _262  and  _263
REMARK  109  A    between atoms: _266  and  _268
REMARK  110  A    between atoms: _268  and  _269
REMARK  111  A    between atoms: _271  and  _273
REMARK  112  A    between atoms: _273  and  _274
REMARK  113  A    between atoms: _273  and  _276
REMARK  114  A    between atoms: _277  and  _278
REMARK  115  A    between atoms: _278  and  _279
REMARK  116  A    between atoms: _288  and  _290
REMARK  117  A    between atoms: _290  and  _291
REMARK  118  A    between atoms: _290  and  _293
REMARK  119  A    between atoms: _293  and  _294
REMARK  120  A    between atoms: _299  and  _301
REMARK  121  A    between atoms: _301  and  _302
REMARK  122  A    between atoms: _301  and  _304
REMARK  123  A    between atoms: _304  and  _305
REMARK  124  A    between atoms: _305  and  _306
REMARK  125  A    between atoms: _306  and  _307
REMARK  126  A    between atoms: _316  and  _318
REMARK  127  A    between atoms: _318  and  _319
REMARK  128  A    between atoms: _318  and  _321
REMARK  129  A    between atoms: _321  and  _322
REMARK  130  A    between atoms: _325  and  _327
REMARK  131  A    between atoms: _327  and  _328
REMARK  132  A    between atoms: _327  and  _330
REMARK  133  A    between atoms: _330  and  _331
REMARK  134  A    between atoms: _334  and  _336
REMARK  135  A    between atoms: _336  and  _337
REMARK  136  A    between atoms: _336  and  _339
REMARK  137  A    between atoms: _339  and  _340
REMARK  138  A    between atoms: _343  and  _345
REMARK  139  A    between atoms: _345  and  _346
REMARK  140  A    between atoms: _345  and  _348
REMARK  141  A    between atoms: _348  and  _349
REMARK  142  A    between atoms: _352  and  _354
REMARK  143  A    between atoms: _354  and  _355
REMARK  144  A    between atoms: _357  and  _359
REMARK  145  A    between atoms: _359  and  _360
REMARK  146  A    between atoms: _363  and  _365
REMARK  147  A    between atoms: _365  and  _366
REMARK  148  A    between atoms: _365  and  _368
REMARK  149  A    between atoms: _368  and  _369
REMARK  150  A    between atoms: _372  and  _374
REMARK  151  A    between atoms: _374  and  _375
REMARK  152  A    between atoms: _374  and  _377
REMARK  153  A    between atoms: _377  and  _378
REMARK  154  A    between atoms: _381  and  _383
REMARK  155  A    between atoms: _383  and  _384
REMARK  156  A    between atoms: _383  and  _386
REMARK  157  A    between atoms: _386  and  _387
REMARK  158  A    between atoms: _390  and  _392
REMARK  159  A    between atoms: _392  and  _393
REMARK  160  A    between atoms: _392  and  _395
REMARK  161  A    between atoms: _398  and  _400
REMARK  162  A    between atoms: _400  and  _401
REMARK  163  A    between atoms: _400  and  _403
REMARK  164  A    between atoms: _403  and  _404
REMARK  165  A    between atoms: _407  and  _409
REMARK  166  A    between atoms: _409  and  _410
REMARK  167  A    between atoms: _409  and  _412
REMARK  168  A    between atoms: _412  and  _413
REMARK  169  A    between atoms: _413  and  _414
REMARK  170  A    between atoms: _414  and  _415
REMARK  171  A    between atoms: _415  and  _416
REMARK  172  A    between atoms: _420  and  _422
REMARK  173  A    between atoms: _422  and  _423
REMARK  174  A    between atoms: _422  and  _425
REMARK  175  A    between atoms: _425  and  _426
REMARK  176  A    between atoms: _426  and  _427
REMARK  177  A    between atoms: _429  and  _431
REMARK  178  A    between atoms: _431  and  _432
REMARK  179  A    between atoms: _431  and  _434
REMARK  180  A    between atoms: _434  and  _435
REMARK  181  A    between atoms: _438  and  _440
REMARK  182  A    between atoms: _440  and  _441
REMARK  183  A    between atoms: _443  and  _445
REMARK  184  A    between atoms: _445  and  _446
REMARK  185  A    between atoms: _448  and  _450
REMARK  186  A    between atoms: _450  and  _451
REMARK  187  A    between atoms: _450  and  _453
REMARK  188  A    between atoms: _453  and  _454
REMARK  189  A    between atoms: _457  and  _459
REMARK  190  A    between atoms: _459  and  _460
REMARK  191  A    between atoms: _462  and  _464
REMARK  192  A    between atoms: _464  and  _465
REMARK  193  A    between atoms: _467  and  _469
REMARK  194  A    between atoms: _469  and  _470
REMARK  195  A    between atoms: _469  and  _472
REMARK  196  A    between atoms: _472  and  _473
REMARK  197  A    between atoms: _479  and  _481
REMARK  198  A    between atoms: _481  and  _482
REMARK  199  A    between atoms: _481  and  _484
REMARK  200  A    between atoms: _487  and  _489
REMARK  201  A    between atoms: _489  and  _490
REMARK  202  A    between atoms: _489  and  _492
REMARK  203  A    between atoms: _495  and  _497
REMARK  204  A    between atoms: _497  and  _498
REMARK  205  A    between atoms: _497  and  _500
REMARK  206  A    between atoms: _500  and  _501
REMARK  207  A    between atoms: _504  and  _506
REMARK  208  A    between atoms: _506  and  _507
REMARK  209  A    between atoms: _506  and  _509
REMARK  210  A    between atoms: _509  and  _510
REMARK  211  A    between atoms: _514  and  _515
REMARK  212  A    between atoms: _520  and  _522
REMARK  213  A    between atoms: _522  and  _523
REMARK  214  A    between atoms: _522  and  _525
REMARK  215  A    between atoms: _528  and  _530
REMARK  216  A    between atoms: _530  and  _531
REMARK  217  A    between atoms: _530  and  _533
REMARK  218  A    between atoms: _533  and  _534
REMARK  219  A    between atoms: _539  and  _541
REMARK  220  A    between atoms: _541  and  _542
REMARK  221  A    between atoms: _541  and  _544
REMARK  222  A    between atoms: _544  and  _545
REMARK  223  A    between atoms: _548  and  _550
REMARK  224  A    between atoms: _550  and  _551
REMARK  225  A    between atoms: _550  and  _553
REMARK  226  A    between atoms: _553  and  _554
REMARK  227  A    between atoms: _557  and  _559
REMARK  228  A    between atoms: _559  and  _560
REMARK  229  A    between atoms: _562  and  _564
REMARK  230  A    between atoms: _564  and  _565
REMARK  231  A    between atoms: _564  and  _567
REMARK  232  A    between atoms: _567  and  _568
REMARK  233  A    between atoms: _568  and  _569
REMARK  234  A    between atoms: _569  and  _570
REMARK  235  A    between atoms: _579  and  _581
REMARK  236  A    between atoms: _581  and  _582
REMARK  237  A    between atoms: _581  and  _584
REMARK  238  A    between atoms: _584  and  _585
REMARK                            x       y       z     vdW  Elec       q    Type
REMARK                         _______ _______ _______ _____ _____    ______ ____
ROOT
ATOM      1  O   HOH     1      10.432  12.278  21.232  0.00  0.00    +0.000 OA
ENDROOT
TORSDOF 0
REMARK  Name = ../refined-set-2016/3nuj/3nuj_pocket.pdb
REMARK  238 active torsions:
REMARK  status: ('A' for Active; 'I' for Inactive)
REMARK    1  A    between atoms: _1  and  _3
REMARK    2  A    between atoms: _3  and  _4
REMARK    3  A    between atoms: _3  and  _6
REMARK    4  A    between atoms: _6  and  _7
REMARK    5  A    between atoms: _7  and  _8
REMARK    6  A    between atoms: _8  and  _9
REMARK    7  A    between atoms: _18  and  _20
REMARK    8  A    between atoms: _20  and  _21
REMARK    9  A    between atoms: _20  and  _23
REMARK   10  A    between atoms: _23  and  _24
REMARK   11  A    between atoms: _27  and  _29
REMARK   12  A    between atoms: _29  and  _30
REMARK   13  A    between atoms: _29  and  _32
REMARK   14  A    between atoms: _32  and  _33
REMARK   15  A    between atoms: _36  and  _38
REMARK   16  A    between atoms: _38  and  _39
REMARK   17  A    between atoms: _38  and  _41
REMARK   18  A    between atoms: _41  and  _42
REMARK   19  A    between atoms: _45  and  _47
REMARK   20  A    between atoms: _47  and  _48
REMARK   21  A    between atoms: _47  and  _50
REMARK   22  A    between atoms: _50  and  _51
REMARK   23  A    between atoms: _54  and  _56
REMARK   24  A    between atoms: _56  and  _57
REMARK   25  A    between atoms: _59  and  _61
REMARK   26  A    between atoms: _61  and  _62
REMARK   27  A    between atoms: _65  and  _67
REMARK   28  A    between atoms: _67  and  _68
REMARK   29  A    between atoms: _67  and  _70
REMARK   30  A    between atoms: _70  and  _71
REMARK   31  A    between atoms: _74  and  _76
REMARK   32  A    between atoms: _76  and  _77
REMARK   33  A    between atoms: _76  and  _79
REMARK   34  A    between atoms: _79  and  _80
REMARK   35  A    between atoms: _83  and  _85
REMARK   36  A    between atoms: _85  and  _86
REMARK   37  A    between atoms: _85  and  _88
REMARK   38  A    between atoms: _88  and  _89
REMARK   39  A    between atoms: _92  and  _94
REMARK   40  A    between atoms: _94  and  _95
REMARK   41  A    between atoms: _94  and  _97
REMARK   42  A    between atoms: _100  and  _102
REMARK   43  A    between atoms: _102  and  _103
REMARK   44  A    between atoms: _102  and  _105
REMARK   45  A    between atoms: _105  and  _106
REMARK   46  A    between atoms: _109  and  _111
REMARK   47  A    between atoms: _111  and  _112
REMARK   48  A    between atoms: _111  and  _114
REMARK   49  A    between atoms: _114  and  _115
REMARK   50  A    between atoms: _115  and  _116
REMARK   51  A    between atoms: _116  and  _117
REMARK   52  A    between atoms: _117  and  _118
REMARK   53  A    between atoms: _122  and  _124
REMARK   54  A    between atoms: _124  and  _125
REMARK   55  A    between atoms: _124  and  _127
REMARK   56  A    between atoms: _127  and  _128
REMARK   57  A    between atoms: _128  and  _129
REMARK   58  A    between atoms: _131  and  _133
REMARK   59  A    between atoms: _133  and  _134
REMARK   60  A    between atoms: _133  and  _136
REMARK   61  A    between atoms: _136  and  _137
REMARK   62  A    between atoms: _140  and  _142
REMARK   63  A    between atoms: _142  and  _143
REMARK   64  A    between atoms: _145  and  _147
REMARK   65  A    between atoms: _147  and  _148
REMARK   66  A    between atoms: _150  and  _152
REMARK   67  A    between atoms: _152  and  _153
REMARK   68  A    between atoms: _152  and  _155
REMARK   69  A    between atoms: _155  and  _156
REMARK   70  A    between atoms: _159  and  _161
REMARK   71  A    between atoms: _161  and  _162
REMARK   72  A    between atoms: _164  and  _166
REMARK   73  A    between atoms: _166  and  _167
REMARK   74  A    between atoms: _169  and  _171
REMARK   75  A    between atoms: _171  and  _172
REMARK   76  A    between atoms: _171  and  _174
REMARK   77  A    between atoms: _174  and  _175
REMARK   78  A    between atoms: _181  and  _183
REMARK   79  A    between atoms: _183  and  _184
REMARK   80  A    between atoms: _183  and  _186
REMARK   81  A    between atoms: _189  and  _191
REMARK   82  A    between atoms: _191  and  _192
REMARK   83  A    between atoms: _191  and  _194
REMARK   84  A    between atoms: _197  and  _199
REMARK   85  A    between atoms: _199  and  _200
REMARK   86  A    between atoms: _199  and  _202
REMARK   87  A    between atoms: _202  and  _203
REMARK   88  A    between atoms: _207  and  _208
REMARK   89  A    between atoms: _213  and  _215
REMARK   90  A    between atoms: _215  and  _216
REMARK   91  A    between atoms: _215  and  _218
REMARK   92  A    between atoms: _218  and  _219
REMARK   93  A    between atoms: _223  and  _224
REMARK   94  A    between atoms: _229  and  _231
REMARK   95  A    between atoms: _231  and  _232
REMARK   96  A    between atoms: _231  and  _234
REMARK   97  A    between atoms: _237  and  _239
REMARK   98  A    between atoms: _239  and  _240
REMARK   99  A    between atoms: _239  and  _242
REMARK  100  A    between atoms: _242  and  _243
REMARK  101  A    between atoms: _248  and  _250
REMARK  102  A    between atoms: _250  and  _251
REMARK  103  A    between atoms: _250  and  _253
REMARK  104  A    between atoms: _253  and  _254
REMARK  105  A    between atoms: _257  and  _259
REMARK  106  A    between atoms: _259  and  _260
REMARK  107  A    between atoms: _259  and  _262
REMARK  108  A    between atoms: _262  and  _263
REMARK  109  A    between atoms: _266  and  _268
REMARK  110  A    between atoms: _268  and  _269
REMARK  111  A    between atoms: _271  and  _273
REMARK  112  A    between atoms: _273  and  _274
REMARK  113  A    between atoms: _273  and  _276
REMARK  114  A    between atoms: _277  and  _278
REMARK  115  A    between atoms: _278  and  _279
REMARK  116  A    between atoms: _288  and  _290
REMARK  117  A    between atoms: _290  and  _291
REMARK  118  A    between atoms: _290  and  _293
REMARK  119  A    between atoms: _293  and  _294
REMARK  120  A    between atoms: _299  and  _301
REMARK  121  A    between atoms: _301  and  _302
REMARK  122  A    between atoms: _301  and  _304
REMARK  123  A    between atoms: _304  and  _305
REMARK  124  A    between atoms: _305  and  _306
REMARK  125  A    between atoms: _306  and  _307
REMARK  126  A    between atoms: _316  and  _318
REMARK  127  A    between atoms: _318  and  _319
REMARK  128  A    between atoms: _318  and  _321
REMARK  129  A    between atoms: _321  and  _322
REMARK  130  A    between atoms: _325  and  _327
REMARK  131  A    between atoms: _327  and  _328
REMARK  132  A    between atoms: _327  and  _330
REMARK  133  A    between atoms: _330  and  _331
REMARK  134  A    between atoms: _334  and  _336
REMARK  135  A    between atoms: _336  and  _337
REMARK  136  A    between atoms: _336  and  _339
REMARK  137  A    between atoms: _339  and  _340
REMARK  138  A    between atoms: _343  and  _345
REMARK  139  A    between atoms: _345  and  _346
REMARK  140  A    between atoms: _345  and  _348
REMARK  141  A    between atoms: _348  and  _349
REMARK  142  A    between atoms: _352  and  _354
REMARK  143  A    between atoms: _354  and  _355
REMARK  144  A    between atoms: _357  and  _359
REMARK  145  A    between atoms: _359  and  _360
REMARK  146  A    between atoms: _363  and  _365
REMARK  147  A    between atoms: _365  and  _366
REMARK  148  A    between atoms: _365  and  _368
REMARK  149  A    between atoms: _368  and  _369
REMARK  150  A    between atoms: _372  and  _374
REMARK  151  A    between atoms: _374  and  _375
REMARK  152  A    between atoms: _374  and  _377
REMARK  153  A    between atoms: _377  and  _378
REMARK  154  A    between atoms: _381  and  _383
REMARK  155  A    between atoms: _383  and  _384
REMARK  156  A    between atoms: _383  and  _386
REMARK  157  A    between atoms: _386  and  _387
REMARK  158  A    between atoms: _390  and  _392
REMARK  159  A    between atoms: _392  and  _393
REMARK  160  A    between atoms: _392  and  _395
REMARK  161  A    between atoms: _398  and  _400
REMARK  162  A    between atoms: _400  and  _401
REMARK  163  A    between atoms: _400  and  _403
REMARK  164  A    between atoms: _403  and  _404
REMARK  165  A    between atoms: _407  and  _409
REMARK  166  A    between atoms: _409  and  _410
REMARK  167  A    between atoms: _409  and  _412
REMARK  168  A    between atoms: _412  and  _413
REMARK  169  A    between atoms: _413  and  _414
REMARK  170  A    between atoms: _414  and  _415
REMARK  171  A    between atoms: _415  and  _416
REMARK  172  A    between atoms: _420  and  _422
REMARK  173  A    between atoms: _422  and  _423
REMARK  174  A    between atoms: _422  and  _425
REMARK  175  A    between atoms: _425  and  _426
REMARK  176  A    between atoms: _426  and  _427
REMARK  177  A    between atoms: _429  and  _431
REMARK  178  A    between atoms: _431  and  _432
REMARK  179  A    between atoms: _431  and  _434
REMARK  180  A    between atoms: _434  and  _435
REMARK  181  A    between atoms: _438  and  _440
REMARK  182  A    between atoms: _440  and  _441
REMARK  183  A    between atoms: _443  and  _445
REMARK  184  A    between atoms: _445  and  _446
REMARK  185  A    between atoms: _448  and  _450
REMARK  186  A    between atoms: _450  and  _451
REMARK  187  A    between atoms: _450  and  _453
REMARK  188  A    between atoms: _453  and  _454
REMARK  189  A    between atoms: _457  and  _459
REMARK  190  A    between atoms: _459  and  _460
REMARK  191  A    between atoms: _462  and  _464
REMARK  192  A    between atoms: _464  and  _465
REMARK  193  A    between atoms: _467  and  _469
REMARK  194  A    between atoms: _469  and  _470
REMARK  195  A    between atoms: _469  and  _472
REMARK  196  A    between atoms: _472  and  _473
REMARK  197  A    between atoms: _479  and  _481
REMARK  198  A    between atoms: _481  and  _482
REMARK  199  A    between atoms: _481  and  _484
REMARK  200  A    between atoms: _487  and  _489
REMARK  201  A    between atoms: _489  and  _490
REMARK  202  A    between atoms: _489  and  _492
REMARK  203  A    between atoms: _495  and  _497
REMARK  204  A    between atoms: _497  and  _498
REMARK  205  A    between atoms: _497  and  _500
REMARK  206  A    between atoms: _500  and  _501
REMARK  207  A    between atoms: _504  and  _506
REMARK  208  A    between atoms: _506  and  _507
REMARK  209  A    between atoms: _506  and  _509
REMARK  210  A    between atoms: _509  and  _510
REMARK  211  A    between atoms: _514  and  _515
REMARK  212  A    between atoms: _520  and  _522
REMARK  213  A    between atoms: _522  and  _523
REMARK  214  A    between atoms: _522  and  _525
REMARK  215  A    between atoms: _528  and  _530
REMARK  216  A    between atoms: _530  and  _531
REMARK  217  A    between atoms: _530  and  _533
REMARK  218  A    between atoms: _533  and  _534
REMARK  219  A    between atoms: _539  and  _541
REMARK  220  A    between atoms: _541  and  _542
REMARK  221  A    between atoms: _541  and  _544
REMARK  222  A    between atoms: _544  and  _545
REMARK  223  A    between atoms: _548  and  _550
REMARK  224  A    between atoms: _550  and  _551
REMARK  225  A    between atoms: _550  and  _553
REMARK  226  A    between atoms: _553  and  _554
REMARK  227  A    between atoms: _557  and  _559
REMARK  228  A    between atoms: _559  and  _560
REMARK  229  A    between atoms: _562  and  _564
REMARK  230  A    between atoms: _564  and  _565
REMARK  231  A    between atoms: _564  and  _567
REMARK  232  A    between atoms: _567  and  _568
REMARK  233  A    between atoms: _568  and  _569
REMARK  234  A    between atoms: _569  and  _570
REMARK  235  A    between atoms: _579  and  _581
REMARK  236  A    between atoms: _581  and  _582
REMARK  237  A    between atoms: _581  and  _584
REMARK  238  A    between atoms: _584  and  _585
REMARK                            x       y       z     vdW  Elec       q    Type
REMARK                         _______ _______ _______ _____ _____    ______ ____
ROOT
ATOM      1  O   HOH     1       3.379  17.029  16.081  0.00  0.00    +0.000 OA
ENDROOT
TORSDOF 0
REMARK  Name = ../refined-set-2016/3nuj/3nuj_pocket.pdb
REMARK  238 active torsions:
REMARK  status: ('A' for Active; 'I' for Inactive)
REMARK    1  A    between atoms: _1  and  _3
REMARK    2  A    between atoms: _3  and  _4
REMARK    3  A    between atoms: _3  and  _6
REMARK    4  A    between atoms: _6  and  _7
REMARK    5  A    between atoms: _7  and  _8
REMARK    6  A    between atoms: _8  and  _9
REMARK    7  A    between atoms: _18  and  _20
REMARK    8  A    between atoms: _20  and  _21
REMARK    9  A    between atoms: _20  and  _23
REMARK   10  A    between atoms: _23  and  _24
REMARK   11  A    between atoms: _27  and  _29
REMARK   12  A    between atoms: _29  and  _30
REMARK   13  A    between atoms: _29  and  _32
REMARK   14  A    between atoms: _32  and  _33
REMARK   15  A    between atoms: _36  and  _38
REMARK   16  A    between atoms: _38  and  _39
REMARK   17  A    between atoms: _38  and  _41
REMARK   18  A    between atoms: _41  and  _42
REMARK   19  A    between atoms: _45  and  _47
REMARK   20  A    between atoms: _47  and  _48
REMARK   21  A    between atoms: _47  and  _50
REMARK   22  A    between atoms: _50  and  _51
REMARK   23  A    between atoms: _54  and  _56
REMARK   24  A    between atoms: _56  and  _57
REMARK   25  A    between atoms: _59  and  _61
REMARK   26  A    between atoms: _61  and  _62
REMARK   27  A    between atoms: _65  and  _67
REMARK   28  A    between atoms: _67  and  _68
REMARK   29  A    between atoms: _67  and  _70
REMARK   30  A    between atoms: _70  and  _71
REMARK   31  A    between atoms: _74  and  _76
REMARK   32  A    between atoms: _76  and  _77
REMARK   33  A    between atoms: _76  and  _79
REMARK   34  A    between atoms: _79  and  _80
REMARK   35  A    between atoms: _83  and  _85
REMARK   36  A    between atoms: _85  and  _86
REMARK   37  A    between atoms: _85  and  _88
REMARK   38  A    between atoms: _88  and  _89
REMARK   39  A    between atoms: _92  and  _94
REMARK   40  A    between atoms: _94  and  _95
REMARK   41  A    between atoms: _94  and  _97
REMARK   42  A    between atoms: _100  and  _102
REMARK   43  A    between atoms: _102  and  _103
REMARK   44  A    between atoms: _102  and  _105
REMARK   45  A    between atoms: _105  and  _106
REMARK   46  A    between atoms: _109  and  _111
REMARK   47  A    between atoms: _111  and  _112
REMARK   48  A    between atoms: _111  and  _114
REMARK   49  A    between atoms: _114  and  _115
REMARK   50  A    between atoms: _115  and  _116
REMARK   51  A    between atoms: _116  and  _117
REMARK   52  A    between atoms: _117  and  _118
REMARK   53  A    between atoms: _122  and  _124
REMARK   54  A    between atoms: _124  and  _125
REMARK   55  A    between atoms: _124  and  _127
REMARK   56  A    between atoms: _127  and  _128
REMARK   57  A    between atoms: _128  and  _129
REMARK   58  A    between atoms: _131  and  _133
REMARK   59  A    between atoms: _133  and  _134
REMARK   60  A    between atoms: _133  and  _136
REMARK   61  A    between atoms: _136  and  _137
REMARK   62  A    between atoms: _140  and  _142
REMARK   63  A    between atoms: _142  and  _143
REMARK   64  A    between atoms: _145  and  _147
REMARK   65  A    between atoms: _147  and  _148
REMARK   66  A    between atoms: _150  and  _152
REMARK   67  A    between atoms: _152  and  _153
REMARK   68  A    between atoms: _152  and  _155
REMARK   69  A    between atoms: _155  and  _156
REMARK   70  A    between atoms: _159  and  _161
REMARK   71  A    between atoms: _161  and  _162
REMARK   72  A    between atoms: _164  and  _166
REMARK   73  A    between atoms: _166  and  _167
REMARK   74  A    between atoms: _169  and  _171
REMARK   75  A    between atoms: _171  and  _172
REMARK   76  A    between atoms: _171  and  _174
REMARK   77  A    between atoms: _174  and  _175
REMARK   78  A    between atoms: _181  and  _183
REMARK   79  A    between atoms: _183  and  _184
REMARK   80  A    between atoms: _183  and  _186
REMARK   81  A    between atoms: _189  and  _191
REMARK   82  A    between atoms: _191  and  _192
REMARK   83  A    between atoms: _191  and  _194
REMARK   84  A    between atoms: _197  and  _199
REMARK   85  A    between atoms: _199  and  _200
REMARK   86  A    between atoms: _199  and  _202
REMARK   87  A    between atoms: _202  and  _203
REMARK   88  A    between atoms: _207  and  _208
REMARK   89  A    between atoms: _213  and  _215
REMARK   90  A    between atoms: _215  and  _216
REMARK   91  A    between atoms: _215  and  _218
REMARK   92  A    between atoms: _218  and  _219
REMARK   93  A    between atoms: _223  and  _224
REMARK   94  A    between atoms: _229  and  _231
REMARK   95  A    between atoms: _231  and  _232
REMARK   96  A    between atoms: _231  and  _234
REMARK   97  A    between atoms: _237  and  _239
REMARK   98  A    between atoms: _239  and  _240
REMARK   99  A    between atoms: _239  and  _242
REMARK  100  A    between atoms: _242  and  _243
REMARK  101  A    between atoms: _248  and  _250
REMARK  102  A    between atoms: _250  and  _251
REMARK  103  A    between atoms: _250  and  _253
REMARK  104  A    between atoms: _253  and  _254
REMARK  105  A    between atoms: _257  and  _259
REMARK  106  A    between atoms: _259  and  _260
REMARK  107  A    between atoms: _259  and  _262
REMARK  108  A    between atoms: _262  and  _263
REMARK  109  A    between atoms: _266  and  _268
REMARK  110  A    between atoms: _268  and  _269
REMARK  111  A    between atoms: _271  and  _273
REMARK  112  A    between atoms: _273  and  _274
REMARK  113  A    between atoms: _273  and  _276
REMARK  114  A    between atoms: _277  and  _278
REMARK  115  A    between atoms: _278  and  _279
REMARK  116  A    between atoms: _288  and  _290
REMARK  117  A    between atoms: _290  and  _291
REMARK  118  A    between atoms: _290  and  _293
REMARK  119  A    between atoms: _293  and  _294
REMARK  120  A    between atoms: _299  and  _301
REMARK  121  A    between atoms: _301  and  _302
REMARK  122  A    between atoms: _301  and  _304
REMARK  123  A    between atoms: _304  and  _305
REMARK  124  A    between atoms: _305  and  _306
REMARK  125  A    between atoms: _306  and  _307
REMARK  126  A    between atoms: _316  and  _318
REMARK  127  A    between atoms: _318  and  _319
REMARK  128  A    between atoms: _318  and  _321
REMARK  129  A    between atoms: _321  and  _322
REMARK  130  A    between atoms: _325  and  _327
REMARK  131  A    between atoms: _327  and  _328
REMARK  132  A    between atoms: _327  and  _330
REMARK  133  A    between atoms: _330  and  _331
REMARK  134  A    between atoms: _334  and  _336
REMARK  135  A    between atoms: _336  and  _337
REMARK  136  A    between atoms: _336  and  _339
REMARK  137  A    between atoms: _339  and  _340
REMARK  138  A    between atoms: _343  and  _345
REMARK  139  A    between atoms: _345  and  _346
REMARK  140  A    between atoms: _345  and  _348
REMARK  141  A    between atoms: _348  and  _349
REMARK  142  A    between atoms: _352  and  _354
REMARK  143  A    between atoms: _354  and  _355
REMARK  144  A    between atoms: _357  and  _359
REMARK  145  A    between atoms: _359  and  _360
REMARK  146  A    between atoms: _363  and  _365
REMARK  147  A    between atoms: _365  and  _366
REMARK  148  A    between atoms: _365  and  _368
REMARK  149  A    between atoms: _368  and  _369
REMARK  150  A    between atoms: _372  and  _374
REMARK  151  A    between atoms: _374  and  _375
REMARK  152  A    between atoms: _374  and  _377
REMARK  153  A    between atoms: _377  and  _378
REMARK  154  A    between atoms: _381  and  _383
REMARK  155  A    between atoms: _383  and  _384
REMARK  156  A    between atoms: _383  and  _386
REMARK  157  A    between atoms: _386  and  _387
REMARK  158  A    between atoms: _390  and  _392
REMARK  159  A    between atoms: _392  and  _393
REMARK  160  A    between atoms: _392  and  _395
REMARK  161  A    between atoms: _398  and  _400
REMARK  162  A    between atoms: _400  and  _401
REMARK  163  A    between atoms: _400  and  _403
REMARK  164  A    between atoms: _403  and  _404
REMARK  165  A    between atoms: _407  and  _409
REMARK  166  A    between atoms: _409  and  _410
REMARK  167  A    between atoms: _409  and  _412
REMARK  168  A    between atoms: _412  and  _413
REMARK  169  A    between atoms: _413  and  _414
REMARK  170  A    between atoms: _414  and  _415
REMARK  171  A    between atoms: _415  and  _416
REMARK  172  A    between atoms: _420  and  _422
REMARK  173  A    between atoms: _422  and  _423
REMARK  174  A    between atoms: _422  and  _425
REMARK  175  A    between atoms: _425  and  _426
REMARK  176  A    between atoms: _426  and  _427
REMARK  177  A    between atoms: _429  and  _431
REMARK  178  A    between atoms: _431  and  _432
REMARK  179  A    between atoms: _431  and  _434
REMARK  180  A    between atoms: _434  and  _435
REMARK  181  A    between atoms: _438  and  _440
REMARK  182  A    between atoms: _440  and  _441
REMARK  183  A    between atoms: _443  and  _445
REMARK  184  A    between atoms: _445  and  _446
REMARK  185  A    between atoms: _448  and  _450
REMARK  186  A    between atoms: _450  and  _451
REMARK  187  A    between atoms: _450  and  _453
REMARK  188  A    between atoms: _453  and  _454
REMARK  189  A    between atoms: _457  and  _459
REMARK  190  A    between atoms: _459  and  _460
REMARK  191  A    between atoms: _462  and  _464
REMARK  192  A    between atoms: _464  and  _465
REMARK  193  A    between atoms: _467  and  _469
REMARK  194  A    between atoms: _469  and  _470
REMARK  195  A    between atoms: _469  and  _472
REMARK  196  A    between atoms: _472  and  _473
REMARK  197  A    between atoms: _479  and  _481
REMARK  198  A    between atoms: _481  and  _482
REMARK  199  A    between atoms: _481  and  _484
REMARK  200  A    between atoms: _487  and  _489
REMARK  201  A    between atoms: _489  and  _490
REMARK  202  A    between atoms: _489  and  _492
REMARK  203  A    between atoms: _495  and  _497
REMARK  204  A    between atoms: _497  and  _498
REMARK  205  A    between atoms: _497  and  _500
REMARK  206  A    between atoms: _500  and  _501
REMARK  207  A    between atoms: _504  and  _506
REMARK  208  A    between atoms: _506  and  _507
REMARK  209  A    between atoms: _506  and  _509
REMARK  210  A    between atoms: _509  and  _510
REMARK  211  A    between atoms: _514  and  _515
REMARK  212  A    between atoms: _520  and  _522
REMARK  213  A    between atoms: _522  and  _523
REMARK  214  A    between atoms: _522  and  _525
REMARK  215  A    between atoms: _528  and  _530
REMARK  216  A    between atoms: _530  and  _531
REMARK  217  A    between atoms: _530  and  _533
REMARK  218  A    between atoms: _533  and  _534
REMARK  219  A    between atoms: _539  and  _541
REMARK  220  A    between atoms: _541  and  _542
REMARK  221  A    between atoms: _541  and  _544
REMARK  222  A    between atoms: _544  and  _545
REMARK  223  A    between atoms: _548  and  _550
REMARK  224  A    between atoms: _550  and  _551
REMARK  225  A    between atoms: _550  and  _553
REMARK  226  A    between atoms: _553  and  _554
REMARK  227  A    between atoms: _557  and  _559
REMARK  228  A    between atoms: _559  and  _560
REMARK  229  A    between atoms: _562  and  _564
REMARK  230  A    between atoms: _564  and  _565
REMARK  231  A    between atoms: _564  and  _567
REMARK  232  A    between atoms: _567  and  _568
REMARK  233  A    between atoms: _568  and  _569
REMARK  234  A    between atoms: _569  and  _570
REMARK  235  A    between atoms: _579  and  _581
REMARK  236  A    between atoms: _581  and  _582
REMARK  237  A    between atoms: _581  and  _584
REMARK  238  A    between atoms: _584  and  _585
REMARK                            x       y       z     vdW  Elec       q    Type
REMARK                         _______ _______ _______ _____ _____    ______ ____
ROOT
ATOM      1  O   HOH     1       7.859   7.231  17.402  0.00  0.00    +0.000 OA
ENDROOT
TORSDOF 0
REMARK  Name = ../refined-set-2016/3nuj/3nuj_pocket.pdb
REMARK  238 active torsions:
REMARK  status: ('A' for Active; 'I' for Inactive)
REMARK    1  A    between atoms: _1  and  _3
REMARK    2  A    between atoms: _3  and  _4
REMARK    3  A    between atoms: _3  and  _6
REMARK    4  A    between atoms: _6  and  _7
REMARK    5  A    between atoms: _7  and  _8
REMARK    6  A    between atoms: _8  and  _9
REMARK    7  A    between atoms: _18  and  _20
REMARK    8  A    between atoms: _20  and  _21
REMARK    9  A    between atoms: _20  and  _23
REMARK   10  A    between atoms: _23  and  _24
REMARK   11  A    between atoms: _27  and  _29
REMARK   12  A    between atoms: _29  and  _30
REMARK   13  A    between atoms: _29  and  _32
REMARK   14  A    between atoms: _32  and  _33
REMARK   15  A    between atoms: _36  and  _38
REMARK   16  A    between atoms: _38  and  _39
REMARK   17  A    between atoms: _38  and  _41
REMARK   18  A    between atoms: _41  and  _42
REMARK   19  A    between atoms: _45  and  _47
REMARK   20  A    between atoms: _47  and  _48
REMARK   21  A    between atoms: _47  and  _50
REMARK   22  A    between atoms: _50  and  _51
REMARK   23  A    between atoms: _54  and  _56
REMARK   24  A    between atoms: _56  and  _57
REMARK   25  A    between atoms: _59  and  _61
REMARK   26  A    between atoms: _61  and  _62
REMARK   27  A    between atoms: _65  and  _67
REMARK   28  A    between atoms: _67  and  _68
REMARK   29  A    between atoms: _67  and  _70
REMARK   30  A    between atoms: _70  and  _71
REMARK   31  A    between atoms: _74  and  _76
REMARK   32  A    between atoms: _76  and  _77
REMARK   33  A    between atoms: _76  and  _79
REMARK   34  A    between atoms: _79  and  _80
REMARK   35  A    between atoms: _83  and  _85
REMARK   36  A    between atoms: _85  and  _86
REMARK   37  A    between atoms: _85  and  _88
REMARK   38  A    between atoms: _88  and  _89
REMARK   39  A    between atoms: _92  and  _94
REMARK   40  A    between atoms: _94  and  _95
REMARK   41  A    between atoms: _94  and  _97
REMARK   42  A    between atoms: _100  and  _102
REMARK   43  A    between atoms: _102  and  _103
REMARK   44  A    between atoms: _102  and  _105
REMARK   45  A    between atoms: _105  and  _106
REMARK   46  A    between atoms: _109  and  _111
REMARK   47  A    between atoms: _111  and  _112
REMARK   48  A    between atoms: _111  and  _114
REMARK   49  A    between atoms: _114  and  _115
REMARK   50  A    between atoms: _115  and  _116
REMARK   51  A    between atoms: _116  and  _117
REMARK   52  A    between atoms: _117  and  _118
REMARK   53  A    between atoms: _122  and  _124
REMARK   54  A    between atoms: _124  and  _125
REMARK   55  A    between atoms: _124  and  _127
REMARK   56  A    between atoms: _127  and  _128
REMARK   57  A    between atoms: _128  and  _129
REMARK   58  A    between atoms: _131  and  _133
REMARK   59  A    between atoms: _133  and  _134
REMARK   60  A    between atoms: _133  and  _136
REMARK   61  A    between atoms: _136  and  _137
REMARK   62  A    between atoms: _140  and  _142
REMARK   63  A    between atoms: _142  and  _143
REMARK   64  A    between atoms: _145  and  _147
REMARK   65  A    between atoms: _147  and  _148
REMARK   66  A    between atoms: _150  and  _152
REMARK   67  A    between atoms: _152  and  _153
REMARK   68  A    between atoms: _152  and  _155
REMARK   69  A    between atoms: _155  and  _156
REMARK   70  A    between atoms: _159  and  _161
REMARK   71  A    between atoms: _161  and  _162
REMARK   72  A    between atoms: _164  and  _166
REMARK   73  A    between atoms: _166  and  _167
REMARK   74  A    between atoms: _169  and  _171
REMARK   75  A    between atoms: _171  and  _172
REMARK   76  A    between atoms: _171  and  _174
REMARK   77  A    between atoms: _174  and  _175
REMARK   78  A    between atoms: _181  and  _183
REMARK   79  A    between atoms: _183  and  _184
REMARK   80  A    between atoms: _183  and  _186
REMARK   81  A    between atoms: _189  and  _191
REMARK   82  A    between atoms: _191  and  _192
REMARK   83  A    between atoms: _191  and  _194
REMARK   84  A    between atoms: _197  and  _199
REMARK   85  A    between atoms: _199  and  _200
REMARK   86  A    between atoms: _199  and  _202
REMARK   87  A    between atoms: _202  and  _203
REMARK   88  A    between atoms: _207  and  _208
REMARK   89  A    between atoms: _213  and  _215
REMARK   90  A    between atoms: _215  and  _216
REMARK   91  A    between atoms: _215  and  _218
REMARK   92  A    between atoms: _218  and  _219
REMARK   93  A    between atoms: _223  and  _224
REMARK   94  A    between atoms: _229  and  _231
REMARK   95  A    between atoms: _231  and  _232
REMARK   96  A    between atoms: _231  and  _234
REMARK   97  A    between atoms: _237  and  _239
REMARK   98  A    between atoms: _239  and  _240
REMARK   99  A    between atoms: _239  and  _242
REMARK  100  A    between atoms: _242  and  _243
REMARK  101  A    between atoms: _248  and  _250
REMARK  102  A    between atoms: _250  and  _251
REMARK  103  A    between atoms: _250  and  _253
REMARK  104  A    between atoms: _253  and  _254
REMARK  105  A    between atoms: _257  and  _259
REMARK  106  A    between atoms: _259  and  _260
REMARK  107  A    between atoms: _259  and  _262
REMARK  108  A    between atoms: _262  and  _263
REMARK  109  A    between atoms: _266  and  _268
REMARK  110  A    between atoms: _268  and  _269
REMARK  111  A    between atoms: _271  and  _273
REMARK  112  A    between atoms: _273  and  _274
REMARK  113  A    between atoms: _273  and  _276
REMARK  114  A    between atoms: _277  and  _278
REMARK  115  A    between atoms: _278  and  _279
REMARK  116  A    between atoms: _288  and  _290
REMARK  117  A    between atoms: _290  and  _291
REMARK  118  A    between atoms: _290  and  _293
REMARK  119  A    between atoms: _293  and  _294
REMARK  120  A    between atoms: _299  and  _301
REMARK  121  A    between atoms: _301  and  _302
REMARK  122  A    between atoms: _301  and  _304
REMARK  123  A    between atoms: _304  and  _305
REMARK  124  A    between atoms: _305  and  _306
REMARK  125  A    between atoms: _306  and  _307
REMARK  126  A    between atoms: _316  and  _318
REMARK  127  A    between atoms: _318  and  _319
REMARK  128  A    between atoms: _318  and  _321
REMARK  129  A    between atoms: _321  and  _322
REMARK  130  A    between atoms: _325  and  _327
REMARK  131  A    between atoms: _327  and  _328
REMARK  132  A    between atoms: _327  and  _330
REMARK  133  A    between atoms: _330  and  _331
REMARK  134  A    between atoms: _334  and  _336
REMARK  135  A    between atoms: _336  and  _337
REMARK  136  A    between atoms: _336  and  _339
REMARK  137  A    between atoms: _339  and  _340
REMARK  138  A    between atoms: _343  and  _345
REMARK  139  A    between atoms: _345  and  _346
REMARK  140  A    between atoms: _345  and  _348
REMARK  141  A    between atoms: _348  and  _349
REMARK  142  A    between atoms: _352  and  _354
REMARK  143  A    between atoms: _354  and  _355
REMARK  144  A    between atoms: _357  and  _359
REMARK  145  A    between atoms: _359  and  _360
REMARK  146  A    between atoms: _363  and  _365
REMARK  147  A    between atoms: _365  and  _366
REMARK  148  A    between atoms: _365  and  _368
REMARK  149  A    between atoms: _368  and  _369
REMARK  150  A    between atoms: _372  and  _374
REMARK  151  A    between atoms: _374  and  _375
REMARK  152  A    between atoms: _374  and  _377
REMARK  153  A    between atoms: _377  and  _378
REMARK  154  A    between atoms: _381  and  _383
REMARK  155  A    between atoms: _383  and  _384
REMARK  156  A    between atoms: _383  and  _386
REMARK  157  A    between atoms: _386  and  _387
REMARK  158  A    between atoms: _390  and  _392
REMARK  159  A    between atoms: _392  and  _393
REMARK  160  A    between atoms: _392  and  _395
REMARK  161  A    between atoms: _398  and  _400
REMARK  162  A    between atoms: _400  and  _401
REMARK  163  A    between atoms: _400  and  _403
REMARK  164  A    between atoms: _403  and  _404
REMARK  165  A    between atoms: _407  and  _409
REMARK  166  A    between atoms: _409  and  _410
REMARK  167  A    between atoms: _409  and  _412
REMARK  168  A    between atoms: _412  and  _413
REMARK  169  A    between atoms: _413  and  _414
REMARK  170  A    between atoms: _414  and  _415
REMARK  171  A    between atoms: _415  and  _416
REMARK  172  A    between atoms: _420  and  _422
REMARK  173  A    between atoms: _422  and  _423
REMARK  174  A    between atoms: _422  and  _425
REMARK  175  A    between atoms: _425  and  _426
REMARK  176  A    between atoms: _426  and  _427
REMARK  177  A    between atoms: _429  and  _431
REMARK  178  A    between atoms: _431  and  _432
REMARK  179  A    between atoms: _431  and  _434
REMARK  180  A    between atoms: _434  and  _435
REMARK  181  A    between atoms: _438  and  _440
REMARK  182  A    between atoms: _440  and  _441
REMARK  183  A    between atoms: _443  and  _445
REMARK  184  A    between atoms: _445  and  _446
REMARK  185  A    between atoms: _448  and  _450
REMARK  186  A    between atoms: _450  and  _451
REMARK  187  A    between atoms: _450  and  _453
REMARK  188  A    between atoms: _453  and  _454
REMARK  189  A    between atoms: _457  and  _459
REMARK  190  A    between atoms: _459  and  _460
REMARK  191  A    between atoms: _462  and  _464
REMARK  192  A    between atoms: _464  and  _465
REMARK  193  A    between atoms: _467  and  _469
REMARK  194  A    between atoms: _469  and  _470
REMARK  195  A    between atoms: _469  and  _472
REMARK  196  A    between atoms: _472  and  _473
REMARK  197  A    between atoms: _479  and  _481
REMARK  198  A    between atoms: _481  and  _482
REMARK  199  A    between atoms: _481  and  _484
REMARK  200  A    between atoms: _487  and  _489
REMARK  201  A    between atoms: _489  and  _490
REMARK  202  A    between atoms: _489  and  _492
REMARK  203  A    between atoms: _495  and  _497
REMARK  204  A    between atoms: _497  and  _498
REMARK  205  A    between atoms: _497  and  _500
REMARK  206  A    between atoms: _500  and  _501
REMARK  207  A    between atoms: _504  and  _506
REMARK  208  A    between atoms: _506  and  _507
REMARK  209  A    between atoms: _506  and  _509
REMARK  210  A    between atoms: _509  and  _510
REMARK  211  A    between atoms: _514  and  _515
REMARK  212  A    between atoms: _520  and  _522
REMARK  213  A    between atoms: _522  and  _523
REMARK  214  A    between atoms: _522  and  _525
REMARK  215  A    between atoms: _528  and  _530
REMARK  216  A    between atoms: _530  and  _531
REMARK  217  A    between atoms: _530  and  _533
REMARK  218  A    between atoms: _533  and  _534
REMARK  219  A    between atoms: _539  and  _541
REMARK  220  A    between atoms: _541  and  _542
REMARK  221  A    between atoms: _541  and  _544
REMARK  222  A    between atoms: _544  and  _545
REMARK  223  A    between atoms: _548  and  _550
REMARK  224  A    between atoms: _550  and  _551
REMARK  225  A    between atoms: _550  and  _553
REMARK  226  A    between atoms: _553  and  _554
REMARK  227  A    between atoms: _557  and  _559
REMARK  228  A    between atoms: _559  and  _560
REMARK  229  A    between atoms: _562  and  _564
REMARK  230  A    between atoms: _564  and  _565
REMARK  231  A    between atoms: _564  and  _567
REMARK  232  A    between atoms: _567  and  _568
REMARK  233  A    between atoms: _568  and  _569
REMARK  234  A    between atoms: _569  and  _570
REMARK  235  A    between atoms: _579  and  _581
REMARK  236  A    between atoms: _581  and  _582
REMARK  237  A    between atoms: _581  and  _584
REMARK  238  A    between atoms: _584  and  _585
REMARK                            x       y       z     vdW  Elec       q    Type
REMARK                         _______ _______ _______ _____ _____    ______ ____
ROOT
ATOM      1  O   HOH     1       8.220  15.102  18.194  0.00  0.00    +0.000 OA
ENDROOT
TORSDOF 0
REMARK  Name = ../refined-set-2016/3nuj/3nuj_pocket.pdb
REMARK  238 active torsions:
REMARK  status: ('A' for Active; 'I' for Inactive)
REMARK    1  A    between atoms: _1  and  _3
REMARK    2  A    between atoms: _3  and  _4
REMARK    3  A    between atoms: _3  and  _6
REMARK    4  A    between atoms: _6  and  _7
REMARK    5  A    between atoms: _7  and  _8
REMARK    6  A    between atoms: _8  and  _9
REMARK    7  A    between atoms: _18  and  _20
REMARK    8  A    between atoms: _20  and  _21
REMARK    9  A    between atoms: _20  and  _23
REMARK   10  A    between atoms: _23  and  _24
REMARK   11  A    between atoms: _27  and  _29
REMARK   12  A    between atoms: _29  and  _30
REMARK   13  A    between atoms: _29  and  _32
REMARK   14  A    between atoms: _32  and  _33
REMARK   15  A    between atoms: _36  and  _38
REMARK   16  A    between atoms: _38  and  _39
REMARK   17  A    between atoms: _38  and  _41
REMARK   18  A    between atoms: _41  and  _42
REMARK   19  A    between atoms: _45  and  _47
REMARK   20  A    between atoms: _47  and  _48
REMARK   21  A    between atoms: _47  and  _50
REMARK   22  A    between atoms: _50  and  _51
REMARK   23  A    between atoms: _54  and  _56
REMARK   24  A    between atoms: _56  and  _57
REMARK   25  A    between atoms: _59  and  _61
REMARK   26  A    between atoms: _61  and  _62
REMARK   27  A    between atoms: _65  and  _67
REMARK   28  A    between atoms: _67  and  _68
REMARK   29  A    between atoms: _67  and  _70
REMARK   30  A    between atoms: _70  and  _71
REMARK   31  A    between atoms: _74  and  _76
REMARK   32  A    between atoms: _76  and  _77
REMARK   33  A    between atoms: _76  and  _79
REMARK   34  A    between atoms: _79  and  _80
REMARK   35  A    between atoms: _83  and  _85
REMARK   36  A    between atoms: _85  and  _86
REMARK   37  A    between atoms: _85  and  _88
REMARK   38  A    between atoms: _88  and  _89
REMARK   39  A    between atoms: _92  and  _94
REMARK   40  A    between atoms: _94  and  _95
REMARK   41  A    between atoms: _94  and  _97
REMARK   42  A    between atoms: _100  and  _102
REMARK   43  A    between atoms: _102  and  _103
REMARK   44  A    between atoms: _102  and  _105
REMARK   45  A    between atoms: _105  and  _106
REMARK   46  A    between atoms: _109  and  _111
REMARK   47  A    between atoms: _111  and  _112
REMARK   48  A    between atoms: _111  and  _114
REMARK   49  A    between atoms: _114  and  _115
REMARK   50  A    between atoms: _115  and  _116
REMARK   51  A    between atoms: _116  and  _117
REMARK   52  A    between atoms: _117  and  _118
REMARK   53  A    between atoms: _122  and  _124
REMARK   54  A    between atoms: _124  and  _125
REMARK   55  A    between atoms: _124  and  _127
REMARK   56  A    between atoms: _127  and  _128
REMARK   57  A    between atoms: _128  and  _129
REMARK   58  A    between atoms: _131  and  _133
REMARK   59  A    between atoms: _133  and  _134
REMARK   60  A    between atoms: _133  and  _136
REMARK   61  A    between atoms: _136  and  _137
REMARK   62  A    between atoms: _140  and  _142
REMARK   63  A    between atoms: _142  and  _143
REMARK   64  A    between atoms: _145  and  _147
REMARK   65  A    between atoms: _147  and  _148
REMARK   66  A    between atoms: _150  and  _152
REMARK   67  A    between atoms: _152  and  _153
REMARK   68  A    between atoms: _152  and  _155
REMARK   69  A    between atoms: _155  and  _156
REMARK   70  A    between atoms: _159  and  _161
REMARK   71  A    between atoms: _161  and  _162
REMARK   72  A    between atoms: _164  and  _166
REMARK   73  A    between atoms: _166  and  _167
REMARK   74  A    between atoms: _169  and  _171
REMARK   75  A    between atoms: _171  and  _172
REMARK   76  A    between atoms: _171  and  _174
REMARK   77  A    between atoms: _174  and  _175
REMARK   78  A    between atoms: _181  and  _183
REMARK   79  A    between atoms: _183  and  _184
REMARK   80  A    between atoms: _183  and  _186
REMARK   81  A    between atoms: _189  and  _191
REMARK   82  A    between atoms: _191  and  _192
REMARK   83  A    between atoms: _191  and  _194
REMARK   84  A    between atoms: _197  and  _199
REMARK   85  A    between atoms: _199  and  _200
REMARK   86  A    between atoms: _199  and  _202
REMARK   87  A    between atoms: _202  and  _203
REMARK   88  A    between atoms: _207  and  _208
REMARK   89  A    between atoms: _213  and  _215
REMARK   90  A    between atoms: _215  and  _216
REMARK   91  A    between atoms: _215  and  _218
REMARK   92  A    between atoms: _218  and  _219
REMARK   93  A    between atoms: _223  and  _224
REMARK   94  A    between atoms: _229  and  _231
REMARK   95  A    between atoms: _231  and  _232
REMARK   96  A    between atoms: _231  and  _234
REMARK   97  A    between atoms: _237  and  _239
REMARK   98  A    between atoms: _239  and  _240
REMARK   99  A    between atoms: _239  and  _242
REMARK  100  A    between atoms: _242  and  _243
REMARK  101  A    between atoms: _248  and  _250
REMARK  102  A    between atoms: _250  and  _251
REMARK  103  A    between atoms: _250  and  _253
REMARK  104  A    between atoms: _253  and  _254
REMARK  105  A    between atoms: _257  and  _259
REMARK  106  A    between atoms: _259  and  _260
REMARK  107  A    between atoms: _259  and  _262
REMARK  108  A    between atoms: _262  and  _263
REMARK  109  A    between atoms: _266  and  _268
REMARK  110  A    between atoms: _268  and  _269
REMARK  111  A    between atoms: _271  and  _273
REMARK  112  A    between atoms: _273  and  _274
REMARK  113  A    between atoms: _273  and  _276
REMARK  114  A    between atoms: _277  and  _278
REMARK  115  A    between atoms: _278  and  _279
REMARK  116  A    between atoms: _288  and  _290
REMARK  117  A    between atoms: _290  and  _291
REMARK  118  A    between atoms: _290  and  _293
REMARK  119  A    between atoms: _293  and  _294
REMARK  120  A    between atoms: _299  and  _301
REMARK  121  A    between atoms: _301  and  _302
REMARK  122  A    between atoms: _301  and  _304
REMARK  123  A    between atoms: _304  and  _305
REMARK  124  A    between atoms: _305  and  _306
REMARK  125  A    between atoms: _306  and  _307
REMARK  126  A    between atoms: _316  and  _318
REMARK  127  A    between atoms: _318  and  _319
REMARK  128  A    between atoms: _318  and  _321
REMARK  129  A    between atoms: _321  and  _322
REMARK  130  A    between atoms: _325  and  _327
REMARK  131  A    between atoms: _327  and  _328
REMARK  132  A    between atoms: _327  and  _330
REMARK  133  A    between atoms: _330  and  _331
REMARK  134  A    between atoms: _334  and  _336
REMARK  135  A    between atoms: _336  and  _337
REMARK  136  A    between atoms: _336  and  _339
REMARK  137  A    between atoms: _339  and  _340
REMARK  138  A    between atoms: _343  and  _345
REMARK  139  A    between atoms: _345  and  _346
REMARK  140  A    between atoms: _345  and  _348
REMARK  141  A    between atoms: _348  and  _349
REMARK  142  A    between atoms: _352  and  _354
REMARK  143  A    between atoms: _354  and  _355
REMARK  144  A    between atoms: _357  and  _359
REMARK  145  A    between atoms: _359  and  _360
REMARK  146  A    between atoms: _363  and  _365
REMARK  147  A    between atoms: _365  and  _366
REMARK  148  A    between atoms: _365  and  _368
REMARK  149  A    between atoms: _368  and  _369
REMARK  150  A    between atoms: _372  and  _374
REMARK  151  A    between atoms: _374  and  _375
REMARK  152  A    between atoms: _374  and  _377
REMARK  153  A    between atoms: _377  and  _378
REMARK  154  A    between atoms: _381  and  _383
REMARK  155  A    between atoms: _383  and  _384
REMARK  156  A    between atoms: _383  and  _386
REMARK  157  A    between atoms: _386  and  _387
REMARK  158  A    between atoms: _390  and  _392
REMARK  159  A    between atoms: _392  and  _393
REMARK  160  A    between atoms: _392  and  _395
REMARK  161  A    between atoms: _398  and  _400
REMARK  162  A    between atoms: _400  and  _401
REMARK  163  A    between atoms: _400  and  _403
REMARK  164  A    between atoms: _403  and  _404
REMARK  165  A    between atoms: _407  and  _409
REMARK  166  A    between atoms: _409  and  _410
REMARK  167  A    between atoms: _409  and  _412
REMARK  168  A    between atoms: _412  and  _413
REMARK  169  A    between atoms: _413  and  _414
REMARK  170  A    between atoms: _414  and  _415
REMARK  171  A    between atoms: _415  and  _416
REMARK  172  A    between atoms: _420  and  _422
REMARK  173  A    between atoms: _422  and  _423
REMARK  174  A    between atoms: _422  and  _425
REMARK  175  A    between atoms: _425  and  _426
REMARK  176  A    between atoms: _426  and  _427
REMARK  177  A    between atoms: _429  and  _431
REMARK  178  A    between atoms: _431  and  _432
REMARK  179  A    between atoms: _431  and  _434
REMARK  180  A    between atoms: _434  and  _435
REMARK  181  A    between atoms: _438  and  _440
REMARK  182  A    between atoms: _440  and  _441
REMARK  183  A    between atoms: _443  and  _445
REMARK  184  A    between atoms: _445  and  _446
REMARK  185  A    between atoms: _448  and  _450
REMARK  186  A    between atoms: _450  and  _451
REMARK  187  A    between atoms: _450  and  _453
REMARK  188  A    between atoms: _453  and  _454
REMARK  189  A    between atoms: _457  and  _459
REMARK  190  A    between atoms: _459  and  _460
REMARK  191  A    between atoms: _462  and  _464
REMARK  192  A    between atoms: _464  and  _465
REMARK  193  A    between atoms: _467  and  _469
REMARK  194  A    between atoms: _469  and  _470
REMARK  195  A    between atoms: _469  and  _472
REMARK  196  A    between atoms: _472  and  _473
REMARK  197  A    between atoms: _479  and  _481
REMARK  198  A    between atoms: _481  and  _482
REMARK  199  A    between atoms: _481  and  _484
REMARK  200  A    between atoms: _487  and  _489
REMARK  201  A    between atoms: _489  and  _490
REMARK  202  A    between atoms: _489  and  _492
REMARK  203  A    between atoms: _495  and  _497
REMARK  204  A    between atoms: _497  and  _498
REMARK  205  A    between atoms: _497  and  _500
REMARK  206  A    between atoms: _500  and  _501
REMARK  207  A    between atoms: _504  and  _506
REMARK  208  A    between atoms: _506  and  _507
REMARK  209  A    between atoms: _506  and  _509
REMARK  210  A    between atoms: _509  and  _510
REMARK  211  A    between atoms: _514  and  _515
REMARK  212  A    between atoms: _520  and  _522
REMARK  213  A    between atoms: _522  and  _523
REMARK  214  A    between atoms: _522  and  _525
REMARK  215  A    between atoms: _528  and  _530
REMARK  216  A    between atoms: _530  and  _531
REMARK  217  A    between atoms: _530  and  _533
REMARK  218  A    between atoms: _533  and  _534
REMARK  219  A    between atoms: _539  and  _541
REMARK  220  A    between atoms: _541  and  _542
REMARK  221  A    between atoms: _541  and  _544
REMARK  222  A    between atoms: _544  and  _545
REMARK  223  A    between atoms: _548  and  _550
REMARK  224  A    between atoms: _550  and  _551
REMARK  225  A    between atoms: _550  and  _553
REMARK  226  A    between atoms: _553  and  _554
REMARK  227  A    between atoms: _557  and  _559
REMARK  228  A    between atoms: _559  and  _560
REMARK  229  A    between atoms: _562  and  _564
REMARK  230  A    between atoms: _564  and  _565
REMARK  231  A    between atoms: _564  and  _567
REMARK  232  A    between atoms: _567  and  _568
REMARK  233  A    between atoms: _568  and  _569
REMARK  234  A    between atoms: _569  and  _570
REMARK  235  A    between atoms: _579  and  _581
REMARK  236  A    between atoms: _581  and  _582
REMARK  237  A    between atoms: _581  and  _584
REMARK  238  A    between atoms: _584  and  _585
REMARK                            x       y       z     vdW  Elec       q    Type
REMARK                         _______ _______ _______ _____ _____    ______ ____
ROOT
ATOM      1  O   HOH     1       5.274  12.948  13.856  0.00  0.00    +0.000 OA
ENDROOT
TORSDOF 0
REMARK  Name = ../refined-set-2016/3nuj/3nuj_pocket.pdb
REMARK  238 active torsions:
REMARK  status: ('A' for Active; 'I' for Inactive)
REMARK    1  A    between atoms: _1  and  _3
REMARK    2  A    between atoms: _3  and  _4
REMARK    3  A    between atoms: _3  and  _6
REMARK    4  A    between atoms: _6  and  _7
REMARK    5  A    between atoms: _7  and  _8
REMARK    6  A    between atoms: _8  and  _9
REMARK    7  A    between atoms: _18  and  _20
REMARK    8  A    between atoms: _20  and  _21
REMARK    9  A    between atoms: _20  and  _23
REMARK   10  A    between atoms: _23  and  _24
REMARK   11  A    between atoms: _27  and  _29
REMARK   12  A    between atoms: _29  and  _30
REMARK   13  A    between atoms: _29  and  _32
REMARK   14  A    between atoms: _32  and  _33
REMARK   15  A    between atoms: _36  and  _38
REMARK   16  A    between atoms: _38  and  _39
REMARK   17  A    between atoms: _38  and  _41
REMARK   18  A    between atoms: _41  and  _42
REMARK   19  A    between atoms: _45  and  _47
REMARK   20  A    between atoms: _47  and  _48
REMARK   21  A    between atoms: _47  and  _50
REMARK   22  A    between atoms: _50  and  _51
REMARK   23  A    between atoms: _54  and  _56
REMARK   24  A    between atoms: _56  and  _57
REMARK   25  A    between atoms: _59  and  _61
REMARK   26  A    between atoms: _61  and  _62
REMARK   27  A    between atoms: _65  and  _67
REMARK   28  A    between atoms: _67  and  _68
REMARK   29  A    between atoms: _67  and  _70
REMARK   30  A    between atoms: _70  and  _71
REMARK   31  A    between atoms: _74  and  _76
REMARK   32  A    between atoms: _76  and  _77
REMARK   33  A    between atoms: _76  and  _79
REMARK   34  A    between atoms: _79  and  _80
REMARK   35  A    between atoms: _83  and  _85
REMARK   36  A    between atoms: _85  and  _86
REMARK   37  A    between atoms: _85  and  _88
REMARK   38  A    between atoms: _88  and  _89
REMARK   39  A    between atoms: _92  and  _94
REMARK   40  A    between atoms: _94  and  _95
REMARK   41  A    between atoms: _94  and  _97
REMARK   42  A    between atoms: _100  and  _102
REMARK   43  A    between atoms: _102  and  _103
REMARK   44  A    between atoms: _102  and  _105
REMARK   45  A    between atoms: _105  and  _106
REMARK   46  A    between atoms: _109  and  _111
REMARK   47  A    between atoms: _111  and  _112
REMARK   48  A    between atoms: _111  and  _114
REMARK   49  A    between atoms: _114  and  _115
REMARK   50  A    between atoms: _115  and  _116
REMARK   51  A    between atoms: _116  and  _117
REMARK   52  A    between atoms: _117  and  _118
REMARK   53  A    between atoms: _122  and  _124
REMARK   54  A    between atoms: _124  and  _125
REMARK   55  A    between atoms: _124  and  _127
REMARK   56  A    between atoms: _127  and  _128
REMARK   57  A    between atoms: _128  and  _129
REMARK   58  A    between atoms: _131  and  _133
REMARK   59  A    between atoms: _133  and  _134
REMARK   60  A    between atoms: _133  and  _136
REMARK   61  A    between atoms: _136  and  _137
REMARK   62  A    between atoms: _140  and  _142
REMARK   63  A    between atoms: _142  and  _143
REMARK   64  A    between atoms: _145  and  _147
REMARK   65  A    between atoms: _147  and  _148
REMARK   66  A    between atoms: _150  and  _152
REMARK   67  A    between atoms: _152  and  _153
REMARK   68  A    between atoms: _152  and  _155
REMARK   69  A    between atoms: _155  and  _156
REMARK   70  A    between atoms: _159  and  _161
REMARK   71  A    between atoms: _161  and  _162
REMARK   72  A    between atoms: _164  and  _166
REMARK   73  A    between atoms: _166  and  _167
REMARK   74  A    between atoms: _169  and  _171
REMARK   75  A    between atoms: _171  and  _172
REMARK   76  A    between atoms: _171  and  _174
REMARK   77  A    between atoms: _174  and  _175
REMARK   78  A    between atoms: _181  and  _183
REMARK   79  A    between atoms: _183  and  _184
REMARK   80  A    between atoms: _183  and  _186
REMARK   81  A    between atoms: _189  and  _191
REMARK   82  A    between atoms: _191  and  _192
REMARK   83  A    between atoms: _191  and  _194
REMARK   84  A    between atoms: _197  and  _199
REMARK   85  A    between atoms: _199  and  _200
REMARK   86  A    between atoms: _199  and  _202
REMARK   87  A    between atoms: _202  and  _203
REMARK   88  A    between atoms: _207  and  _208
REMARK   89  A    between atoms: _213  and  _215
REMARK   90  A    between atoms: _215  and  _216
REMARK   91  A    between atoms: _215  and  _218
REMARK   92  A    between atoms: _218  and  _219
REMARK   93  A    between atoms: _223  and  _224
REMARK   94  A    between atoms: _229  and  _231
REMARK   95  A    between atoms: _231  and  _232
REMARK   96  A    between atoms: _231  and  _234
REMARK   97  A    between atoms: _237  and  _239
REMARK   98  A    between atoms: _239  and  _240
REMARK   99  A    between atoms: _239  and  _242
REMARK  100  A    between atoms: _242  and  _243
REMARK  101  A    between atoms: _248  and  _250
REMARK  102  A    between atoms: _250  and  _251
REMARK  103  A    between atoms: _250  and  _253
REMARK  104  A    between atoms: _253  and  _254
REMARK  105  A    between atoms: _257  and  _259
REMARK  106  A    between atoms: _259  and  _260
REMARK  107  A    between atoms: _259  and  _262
REMARK  108  A    between atoms: _262  and  _263
REMARK  109  A    between atoms: _266  and  _268
REMARK  110  A    between atoms: _268  and  _269
REMARK  111  A    between atoms: _271  and  _273
REMARK  112  A    between atoms: _273  and  _274
REMARK  113  A    between atoms: _273  and  _276
REMARK  114  A    between atoms: _277  and  _278
REMARK  115  A    between atoms: _278  and  _279
REMARK  116  A    between atoms: _288  and  _290
REMARK  117  A    between atoms: _290  and  _291
REMARK  118  A    between atoms: _290  and  _293
REMARK  119  A    between atoms: _293  and  _294
REMARK  120  A    between atoms: _299  and  _301
REMARK  121  A    between atoms: _301  and  _302
REMARK  122  A    between atoms: _301  and  _304
REMARK  123  A    between atoms: _304  and  _305
REMARK  124  A    between atoms: _305  and  _306
REMARK  125  A    between atoms: _306  and  _307
REMARK  126  A    between atoms: _316  and  _318
REMARK  127  A    between atoms: _318  and  _319
REMARK  128  A    between atoms: _318  and  _321
REMARK  129  A    between atoms: _321  and  _322
REMARK  130  A    between atoms: _325  and  _327
REMARK  131  A    between atoms: _327  and  _328
REMARK  132  A    between atoms: _327  and  _330
REMARK  133  A    between atoms: _330  and  _331
REMARK  134  A    between atoms: _334  and  _336
REMARK  135  A    between atoms: _336  and  _337
REMARK  136  A    between atoms: _336  and  _339
REMARK  137  A    between atoms: _339  and  _340
REMARK  138  A    between atoms: _343  and  _345
REMARK  139  A    between atoms: _345  and  _346
REMARK  140  A    between atoms: _345  and  _348
REMARK  141  A    between atoms: _348  and  _349
REMARK  142  A    between atoms: _352  and  _354
REMARK  143  A    between atoms: _354  and  _355
REMARK  144  A    between atoms: _357  and  _359
REMARK  145  A    between atoms: _359  and  _360
REMARK  146  A    between atoms: _363  and  _365
REMARK  147  A    between atoms: _365  and  _366
REMARK  148  A    between atoms: _365  and  _368
REMARK  149  A    between atoms: _368  and  _369
REMARK  150  A    between atoms: _372  and  _374
REMARK  151  A    between atoms: _374  and  _375
REMARK  152  A    between atoms: _374  and  _377
REMARK  153  A    between atoms: _377  and  _378
REMARK  154  A    between atoms: _381  and  _383
REMARK  155  A    between atoms: _383  and  _384
REMARK  156  A    between atoms: _383  and  _386
REMARK  157  A    between atoms: _386  and  _387
REMARK  158  A    between atoms: _390  and  _392
REMARK  159  A    between atoms: _392  and  _393
REMARK  160  A    between atoms: _392  and  _395
REMARK  161  A    between atoms: _398  and  _400
REMARK  162  A    between atoms: _400  and  _401
REMARK  163  A    between atoms: _400  and  _403
REMARK  164  A    between atoms: _403  and  _404
REMARK  165  A    between atoms: _407  and  _409
REMARK  166  A    between atoms: _409  and  _410
REMARK  167  A    between atoms: _409  and  _412
REMARK  168  A    between atoms: _412  and  _413
REMARK  169  A    between atoms: _413  and  _414
REMARK  170  A    between atoms: _414  and  _415
REMARK  171  A    between atoms: _415  and  _416
REMARK  172  A    between atoms: _420  and  _422
REMARK  173  A    between atoms: _422  and  _423
REMARK  174  A    between atoms: _422  and  _425
REMARK  175  A    between atoms: _425  and  _426
REMARK  176  A    between atoms: _426  and  _427
REMARK  177  A    between atoms: _429  and  _431
REMARK  178  A    between atoms: _431  and  _432
REMARK  179  A    between atoms: _431  and  _434
REMARK  180  A    between atoms: _434  and  _435
REMARK  181  A    between atoms: _438  and  _440
REMARK  182  A    between atoms: _440  and  _441
REMARK  183  A    between atoms: _443  and  _445
REMARK  184  A    between atoms: _445  and  _446
REMARK  185  A    between atoms: _448  and  _450
REMARK  186  A    between atoms: _450  and  _451
REMARK  187  A    between atoms: _450  and  _453
REMARK  188  A    between atoms: _453  and  _454
REMARK  189  A    between atoms: _457  and  _459
REMARK  190  A    between atoms: _459  and  _460
REMARK  191  A    between atoms: _462  and  _464
REMARK  192  A    between atoms: _464  and  _465
REMARK  193  A    between atoms: _467  and  _469
REMARK  194  A    between atoms: _469  and  _470
REMARK  195  A    between atoms: _469  and  _472
REMARK  196  A    between atoms: _472  and  _473
REMARK  197  A    between atoms: _479  and  _481
REMARK  198  A    between atoms: _481  and  _482
REMARK  199  A    between atoms: _481  and  _484
REMARK  200  A    between atoms: _487  and  _489
REMARK  201  A    between atoms: _489  and  _490
REMARK  202  A    between atoms: _489  and  _492
REMARK  203  A    between atoms: _495  and  _497
REMARK  204  A    between atoms: _497  and  _498
REMARK  205  A    between atoms: _497  and  _500
REMARK  206  A    between atoms: _500  and  _501
REMARK  207  A    between atoms: _504  and  _506
REMARK  208  A    between atoms: _506  and  _507
REMARK  209  A    between atoms: _506  and  _509
REMARK  210  A    between atoms: _509  and  _510
REMARK  211  A    between atoms: _514  and  _515
REMARK  212  A    between atoms: _520  and  _522
REMARK  213  A    between atoms: _522  and  _523
REMARK  214  A    between atoms: _522  and  _525
REMARK  215  A    between atoms: _528  and  _530
REMARK  216  A    between atoms: _530  and  _531
REMARK  217  A    between atoms: _530  and  _533
REMARK  218  A    between atoms: _533  and  _534
REMARK  219  A    between atoms: _539  and  _541
REMARK  220  A    between atoms: _541  and  _542
REMARK  221  A    between atoms: _541  and  _544
REMARK  222  A    between atoms: _544  and  _545
REMARK  223  A    between atoms: _548  and  _550
REMARK  224  A    between atoms: _550  and  _551
REMARK  225  A    between atoms: _550  and  _553
REMARK  226  A    between atoms: _553  and  _554
REMARK  227  A    between atoms: _557  and  _559
REMARK  228  A    between atoms: _559  and  _560
REMARK  229  A    between atoms: _562  and  _564
REMARK  230  A    between atoms: _564  and  _565
REMARK  231  A    between atoms: _564  and  _567
REMARK  232  A    between atoms: _567  and  _568
REMARK  233  A    between atoms: _568  and  _569
REMARK  234  A    between atoms: _569  and  _570
REMARK  235  A    between atoms: _579  and  _581
REMARK  236  A    between atoms: _581  and  _582
REMARK  237  A    between atoms: _581  and  _584
REMARK  238  A    between atoms: _584  and  _585
REMARK                            x       y       z     vdW  Elec       q    Type
REMARK                         _______ _______ _______ _____ _____    ______ ____
ROOT
ATOM      1  O   HOH     1       3.126   9.607  11.121  0.00  0.00    +0.000 OA
ENDROOT
TORSDOF 0
REMARK  Name = ../refined-set-2016/3nuj/3nuj_pocket.pdb
REMARK  238 active torsions:
REMARK  status: ('A' for Active; 'I' for Inactive)
REMARK    1  A    between atoms: _1  and  _3
REMARK    2  A    between atoms: _3  and  _4
REMARK    3  A    between atoms: _3  and  _6
REMARK    4  A    between atoms: _6  and  _7
REMARK    5  A    between atoms: _7  and  _8
REMARK    6  A    between atoms: _8  and  _9
REMARK    7  A    between atoms: _18  and  _20
REMARK    8  A    between atoms: _20  and  _21
REMARK    9  A    between atoms: _20  and  _23
REMARK   10  A    between atoms: _23  and  _24
REMARK   11  A    between atoms: _27  and  _29
REMARK   12  A    between atoms: _29  and  _30
REMARK   13  A    between atoms: _29  and  _32
REMARK   14  A    between atoms: _32  and  _33
REMARK   15  A    between atoms: _36  and  _38
REMARK   16  A    between atoms: _38  and  _39
REMARK   17  A    between atoms: _38  and  _41
REMARK   18  A    between atoms: _41  and  _42
REMARK   19  A    between atoms: _45  and  _47
REMARK   20  A    between atoms: _47  and  _48
REMARK   21  A    between atoms: _47  and  _50
REMARK   22  A    between atoms: _50  and  _51
REMARK   23  A    between atoms: _54  and  _56
REMARK   24  A    between atoms: _56  and  _57
REMARK   25  A    between atoms: _59  and  _61
REMARK   26  A    between atoms: _61  and  _62
REMARK   27  A    between atoms: _65  and  _67
REMARK   28  A    between atoms: _67  and  _68
REMARK   29  A    between atoms: _67  and  _70
REMARK   30  A    between atoms: _70  and  _71
REMARK   31  A    between atoms: _74  and  _76
REMARK   32  A    between atoms: _76  and  _77
REMARK   33  A    between atoms: _76  and  _79
REMARK   34  A    between atoms: _79  and  _80
REMARK   35  A    between atoms: _83  and  _85
REMARK   36  A    between atoms: _85  and  _86
REMARK   37  A    between atoms: _85  and  _88
REMARK   38  A    between atoms: _88  and  _89
REMARK   39  A    between atoms: _92  and  _94
REMARK   40  A    between atoms: _94  and  _95
REMARK   41  A    between atoms: _94  and  _97
REMARK   42  A    between atoms: _100  and  _102
REMARK   43  A    between atoms: _102  and  _103
REMARK   44  A    between atoms: _102  and  _105
REMARK   45  A    between atoms: _105  and  _106
REMARK   46  A    between atoms: _109  and  _111
REMARK   47  A    between atoms: _111  and  _112
REMARK   48  A    between atoms: _111  and  _114
REMARK   49  A    between atoms: _114  and  _115
REMARK   50  A    between atoms: _115  and  _116
REMARK   51  A    between atoms: _116  and  _117
REMARK   52  A    between atoms: _117  and  _118
REMARK   53  A    between atoms: _122  and  _124
REMARK   54  A    between atoms: _124  and  _125
REMARK   55  A    between atoms: _124  and  _127
REMARK   56  A    between atoms: _127  and  _128
REMARK   57  A    between atoms: _128  and  _129
REMARK   58  A    between atoms: _131  and  _133
REMARK   59  A    between atoms: _133  and  _134
REMARK   60  A    between atoms: _133  and  _136
REMARK   61  A    between atoms: _136  and  _137
REMARK   62  A    between atoms: _140  and  _142
REMARK   63  A    between atoms: _142  and  _143
REMARK   64  A    between atoms: _145  and  _147
REMARK   65  A    between atoms: _147  and  _148
REMARK   66  A    between atoms: _150  and  _152
REMARK   67  A    between atoms: _152  and  _153
REMARK   68  A    between atoms: _152  and  _155
REMARK   69  A    between atoms: _155  and  _156
REMARK   70  A    between atoms: _159  and  _161
REMARK   71  A    between atoms: _161  and  _162
REMARK   72  A    between atoms: _164  and  _166
REMARK   73  A    between atoms: _166  and  _167
REMARK   74  A    between atoms: _169  and  _171
REMARK   75  A    between atoms: _171  and  _172
REMARK   76  A    between atoms: _171  and  _174
REMARK   77  A    between atoms: _174  and  _175
REMARK   78  A    between atoms: _181  and  _183
REMARK   79  A    between atoms: _183  and  _184
REMARK   80  A    between atoms: _183  and  _186
REMARK   81  A    between atoms: _189  and  _191
REMARK   82  A    between atoms: _191  and  _192
REMARK   83  A    between atoms: _191  and  _194
REMARK   84  A    between atoms: _197  and  _199
REMARK   85  A    between atoms: _199  and  _200
REMARK   86  A    between atoms: _199  and  _202
REMARK   87  A    between atoms: _202  and  _203
REMARK   88  A    between atoms: _207  and  _208
REMARK   89  A    between atoms: _213  and  _215
REMARK   90  A    between atoms: _215  and  _216
REMARK   91  A    between atoms: _215  and  _218
REMARK   92  A    between atoms: _218  and  _219
REMARK   93  A    between atoms: _223  and  _224
REMARK   94  A    between atoms: _229  and  _231
REMARK   95  A    between atoms: _231  and  _232
REMARK   96  A    between atoms: _231  and  _234
REMARK   97  A    between atoms: _237  and  _239
REMARK   98  A    between atoms: _239  and  _240
REMARK   99  A    between atoms: _239  and  _242
REMARK  100  A    between atoms: _242  and  _243
REMARK  101  A    between atoms: _248  and  _250
REMARK  102  A    between atoms: _250  and  _251
REMARK  103  A    between atoms: _250  and  _253
REMARK  104  A    between atoms: _253  and  _254
REMARK  105  A    between atoms: _257  and  _259
REMARK  106  A    between atoms: _259  and  _260
REMARK  107  A    between atoms: _259  and  _262
REMARK  108  A    between atoms: _262  and  _263
REMARK  109  A    between atoms: _266  and  _268
REMARK  110  A    between atoms: _268  and  _269
REMARK  111  A    between atoms: _271  and  _273
REMARK  112  A    between atoms: _273  and  _274
REMARK  113  A    between atoms: _273  and  _276
REMARK  114  A    between atoms: _277  and  _278
REMARK  115  A    between atoms: _278  and  _279
REMARK  116  A    between atoms: _288  and  _290
REMARK  117  A    between atoms: _290  and  _291
REMARK  118  A    between atoms: _290  and  _293
REMARK  119  A    between atoms: _293  and  _294
REMARK  120  A    between atoms: _299  and  _301
REMARK  121  A    between atoms: _301  and  _302
REMARK  122  A    between atoms: _301  and  _304
REMARK  123  A    between atoms: _304  and  _305
REMARK  124  A    between atoms: _305  and  _306
REMARK  125  A    between atoms: _306  and  _307
REMARK  126  A    between atoms: _316  and  _318
REMARK  127  A    between atoms: _318  and  _319
REMARK  128  A    between atoms: _318  and  _321
REMARK  129  A    between atoms: _321  and  _322
REMARK  130  A    between atoms: _325  and  _327
REMARK  131  A    between atoms: _327  and  _328
REMARK  132  A    between atoms: _327  and  _330
REMARK  133  A    between atoms: _330  and  _331
REMARK  134  A    between atoms: _334  and  _336
REMARK  135  A    between atoms: _336  and  _337
REMARK  136  A    between atoms: _336  and  _339
REMARK  137  A    between atoms: _339  and  _340
REMARK  138  A    between atoms: _343  and  _345
REMARK  139  A    between atoms: _345  and  _346
REMARK  140  A    between atoms: _345  and  _348
REMARK  141  A    between atoms: _348  and  _349
REMARK  142  A    between atoms: _352  and  _354
REMARK  143  A    between atoms: _354  and  _355
REMARK  144  A    between atoms: _357  and  _359
REMARK  145  A    between atoms: _359  and  _360
REMARK  146  A    between atoms: _363  and  _365
REMARK  147  A    between atoms: _365  and  _366
REMARK  148  A    between atoms: _365  and  _368
REMARK  149  A    between atoms: _368  and  _369
REMARK  150  A    between atoms: _372  and  _374
REMARK  151  A    between atoms: _374  and  _375
REMARK  152  A    between atoms: _374  and  _377
REMARK  153  A    between atoms: _377  and  _378
REMARK  154  A    between atoms: _381  and  _383
REMARK  155  A    between atoms: _383  and  _384
REMARK  156  A    between atoms: _383  and  _386
REMARK  157  A    between atoms: _386  and  _387
REMARK  158  A    between atoms: _390  and  _392
REMARK  159  A    between atoms: _392  and  _393
REMARK  160  A    between atoms: _392  and  _395
REMARK  161  A    between atoms: _398  and  _400
REMARK  162  A    between atoms: _400  and  _401
REMARK  163  A    between atoms: _400  and  _403
REMARK  164  A    between atoms: _403  and  _404
REMARK  165  A    between atoms: _407  and  _409
REMARK  166  A    between atoms: _409  and  _410
REMARK  167  A    between atoms: _409  and  _412
REMARK  168  A    between atoms: _412  and  _413
REMARK  169  A    between atoms: _413  and  _414
REMARK  170  A    between atoms: _414  and  _415
REMARK  171  A    between atoms: _415  and  _416
REMARK  172  A    between atoms: _420  and  _422
REMARK  173  A    between atoms: _422  and  _423
REMARK  174  A    between atoms: _422  and  _425
REMARK  175  A    between atoms: _425  and  _426
REMARK  176  A    between atoms: _426  and  _427
REMARK  177  A    between atoms: _429  and  _431
REMARK  178  A    between atoms: _431  and  _432
REMARK  179  A    between atoms: _431  and  _434
REMARK  180  A    between atoms: _434  and  _435
REMARK  181  A    between atoms: _438  and  _440
REMARK  182  A    between atoms: _440  and  _441
REMARK  183  A    between atoms: _443  and  _445
REMARK  184  A    between atoms: _445  and  _446
REMARK  185  A    between atoms: _448  and  _450
REMARK  186  A    between atoms: _450  and  _451
REMARK  187  A    between atoms: _450  and  _453
REMARK  188  A    between atoms: _453  and  _454
REMARK  189  A    between atoms: _457  and  _459
REMARK  190  A    between atoms: _459  and  _460
REMARK  191  A    between atoms: _462  and  _464
REMARK  192  A    between atoms: _464  and  _465
REMARK  193  A    between atoms: _467  and  _469
REMARK  194  A    between atoms: _469  and  _470
REMARK  195  A    between atoms: _469  and  _472
REMARK  196  A    between atoms: _472  and  _473
REMARK  197  A    between atoms: _479  and  _481
REMARK  198  A    between atoms: _481  and  _482
REMARK  199  A    between atoms: _481  and  _484
REMARK  200  A    between atoms: _487  and  _489
REMARK  201  A    between atoms: _489  and  _490
REMARK  202  A    between atoms: _489  and  _492
REMARK  203  A    between atoms: _495  and  _497
REMARK  204  A    between atoms: _497  and  _498
REMARK  205  A    between atoms: _497  and  _500
REMARK  206  A    between atoms: _500  and  _501
REMARK  207  A    between atoms: _504  and  _506
REMARK  208  A    between atoms: _506  and  _507
REMARK  209  A    between atoms: _506  and  _509
REMARK  210  A    between atoms: _509  and  _510
REMARK  211  A    between atoms: _514  and  _515
REMARK  212  A    between atoms: _520  and  _522
REMARK  213  A    between atoms: _522  and  _523
REMARK  214  A    between atoms: _522  and  _525
REMARK  215  A    between atoms: _528  and  _530
REMARK  216  A    between atoms: _530  and  _531
REMARK  217  A    between atoms: _530  and  _533
REMARK  218  A    between atoms: _533  and  _534
REMARK  219  A    between atoms: _539  and  _541
REMARK  220  A    between atoms: _541  and  _542
REMARK  221  A    between atoms: _541  and  _544
REMARK  222  A    between atoms: _544  and  _545
REMARK  223  A    between atoms: _548  and  _550
REMARK  224  A    between atoms: _550  and  _551
REMARK  225  A    between atoms: _550  and  _553
REMARK  226  A    between atoms: _553  and  _554
REMARK  227  A    between atoms: _557  and  _559
REMARK  228  A    between atoms: _559  and  _560
REMARK  229  A    between atoms: _562  and  _564
REMARK  230  A    between atoms: _564  and  _565
REMARK  231  A    between atoms: _564  and  _567
REMARK  232  A    between atoms: _567  and  _568
REMARK  233  A    between atoms: _568  and  _569
REMARK  234  A    between atoms: _569  and  _570
REMARK  235  A    between atoms: _579  and  _581
REMARK  236  A    between atoms: _581  and  _582
REMARK  237  A    between atoms: _581  and  _584
REMARK  238  A    between atoms: _584  and  _585
REMARK                            x       y       z     vdW  Elec       q    Type
REMARK                         _______ _______ _______ _____ _____    ______ ____
ROOT
ATOM      1  O   HOH     1      20.209  24.820  10.998  0.00  0.00    +0.000 OA
ENDROOT
TORSDOF 0
REMARK  Name = ../refined-set-2016/3nuj/3nuj_pocket.pdb
REMARK  238 active torsions:
REMARK  status: ('A' for Active; 'I' for Inactive)
REMARK    1  A    between atoms: _1  and  _3
REMARK    2  A    between atoms: _3  and  _4
REMARK    3  A    between atoms: _3  and  _6
REMARK    4  A    between atoms: _6  and  _7
REMARK    5  A    between atoms: _7  and  _8
REMARK    6  A    between atoms: _8  and  _9
REMARK    7  A    between atoms: _18  and  _20
REMARK    8  A    between atoms: _20  and  _21
REMARK    9  A    between atoms: _20  and  _23
REMARK   10  A    between atoms: _23  and  _24
REMARK   11  A    between atoms: _27  and  _29
REMARK   12  A    between atoms: _29  and  _30
REMARK   13  A    between atoms: _29  and  _32
REMARK   14  A    between atoms: _32  and  _33
REMARK   15  A    between atoms: _36  and  _38
REMARK   16  A    between atoms: _38  and  _39
REMARK   17  A    between atoms: _38  and  _41
REMARK   18  A    between atoms: _41  and  _42
REMARK   19  A    between atoms: _45  and  _47
REMARK   20  A    between atoms: _47  and  _48
REMARK   21  A    between atoms: _47  and  _50
REMARK   22  A    between atoms: _50  and  _51
REMARK   23  A    between atoms: _54  and  _56
REMARK   24  A    between atoms: _56  and  _57
REMARK   25  A    between atoms: _59  and  _61
REMARK   26  A    between atoms: _61  and  _62
REMARK   27  A    between atoms: _65  and  _67
REMARK   28  A    between atoms: _67  and  _68
REMARK   29  A    between atoms: _67  and  _70
REMARK   30  A    between atoms: _70  and  _71
REMARK   31  A    between atoms: _74  and  _76
REMARK   32  A    between atoms: _76  and  _77
REMARK   33  A    between atoms: _76  and  _79
REMARK   34  A    between atoms: _79  and  _80
REMARK   35  A    between atoms: _83  and  _85
REMARK   36  A    between atoms: _85  and  _86
REMARK   37  A    between atoms: _85  and  _88
REMARK   38  A    between atoms: _88  and  _89
REMARK   39  A    between atoms: _92  and  _94
REMARK   40  A    between atoms: _94  and  _95
REMARK   41  A    between atoms: _94  and  _97
REMARK   42  A    between atoms: _100  and  _102
REMARK   43  A    between atoms: _102  and  _103
REMARK   44  A    between atoms: _102  and  _105
REMARK   45  A    between atoms: _105  and  _106
REMARK   46  A    between atoms: _109  and  _111
REMARK   47  A    between atoms: _111  and  _112
REMARK   48  A    between atoms: _111  and  _114
REMARK   49  A    between atoms: _114  and  _115
REMARK   50  A    between atoms: _115  and  _116
REMARK   51  A    between atoms: _116  and  _117
REMARK   52  A    between atoms: _117  and  _118
REMARK   53  A    between atoms: _122  and  _124
REMARK   54  A    between atoms: _124  and  _125
REMARK   55  A    between atoms: _124  and  _127
REMARK   56  A    between atoms: _127  and  _128
REMARK   57  A    between atoms: _128  and  _129
REMARK   58  A    between atoms: _131  and  _133
REMARK   59  A    between atoms: _133  and  _134
REMARK   60  A    between atoms: _133  and  _136
REMARK   61  A    between atoms: _136  and  _137
REMARK   62  A    between atoms: _140  and  _142
REMARK   63  A    between atoms: _142  and  _143
REMARK   64  A    between atoms: _145  and  _147
REMARK   65  A    between atoms: _147  and  _148
REMARK   66  A    between atoms: _150  and  _152
REMARK   67  A    between atoms: _152  and  _153
REMARK   68  A    between atoms: _152  and  _155
REMARK   69  A    between atoms: _155  and  _156
REMARK   70  A    between atoms: _159  and  _161
REMARK   71  A    between atoms: _161  and  _162
REMARK   72  A    between atoms: _164  and  _166
REMARK   73  A    between atoms: _166  and  _167
REMARK   74  A    between atoms: _169  and  _171
REMARK   75  A    between atoms: _171  and  _172
REMARK   76  A    between atoms: _171  and  _174
REMARK   77  A    between atoms: _174  and  _175
REMARK   78  A    between atoms: _181  and  _183
REMARK   79  A    between atoms: _183  and  _184
REMARK   80  A    between atoms: _183  and  _186
REMARK   81  A    between atoms: _189  and  _191
REMARK   82  A    between atoms: _191  and  _192
REMARK   83  A    between atoms: _191  and  _194
REMARK   84  A    between atoms: _197  and  _199
REMARK   85  A    between atoms: _199  and  _200
REMARK   86  A    between atoms: _199  and  _202
REMARK   87  A    between atoms: _202  and  _203
REMARK   88  A    between atoms: _207  and  _208
REMARK   89  A    between atoms: _213  and  _215
REMARK   90  A    between atoms: _215  and  _216
REMARK   91  A    between atoms: _215  and  _218
REMARK   92  A    between atoms: _218  and  _219
REMARK   93  A    between atoms: _223  and  _224
REMARK   94  A    between atoms: _229  and  _231
REMARK   95  A    between atoms: _231  and  _232
REMARK   96  A    between atoms: _231  and  _234
REMARK   97  A    between atoms: _237  and  _239
REMARK   98  A    between atoms: _239  and  _240
REMARK   99  A    between atoms: _239  and  _242
REMARK  100  A    between atoms: _242  and  _243
REMARK  101  A    between atoms: _248  and  _250
REMARK  102  A    between atoms: _250  and  _251
REMARK  103  A    between atoms: _250  and  _253
REMARK  104  A    between atoms: _253  and  _254
REMARK  105  A    between atoms: _257  and  _259
REMARK  106  A    between atoms: _259  and  _260
REMARK  107  A    between atoms: _259  and  _262
REMARK  108  A    between atoms: _262  and  _263
REMARK  109  A    between atoms: _266  and  _268
REMARK  110  A    between atoms: _268  and  _269
REMARK  111  A    between atoms: _271  and  _273
REMARK  112  A    between atoms: _273  and  _274
REMARK  113  A    between atoms: _273  and  _276
REMARK  114  A    between atoms: _277  and  _278
REMARK  115  A    between atoms: _278  and  _279
REMARK  116  A    between atoms: _288  and  _290
REMARK  117  A    between atoms: _290  and  _291
REMARK  118  A    between atoms: _290  and  _293
REMARK  119  A    between atoms: _293  and  _294
REMARK  120  A    between atoms: _299  and  _301
REMARK  121  A    between atoms: _301  and  _302
REMARK  122  A    between atoms: _301  and  _304
REMARK  123  A    between atoms: _304  and  _305
REMARK  124  A    between atoms: _305  and  _306
REMARK  125  A    between atoms: _306  and  _307
REMARK  126  A    between atoms: _316  and  _318
REMARK  127  A    between atoms: _318  and  _319
REMARK  128  A    between atoms: _318  and  _321
REMARK  129  A    between atoms: _321  and  _322
REMARK  130  A    between atoms: _325  and  _327
REMARK  131  A    between atoms: _327  and  _328
REMARK  132  A    between atoms: _327  and  _330
REMARK  133  A    between atoms: _330  and  _331
REMARK  134  A    between atoms: _334  and  _336
REMARK  135  A    between atoms: _336  and  _337
REMARK  136  A    between atoms: _336  and  _339
REMARK  137  A    between atoms: _339  and  _340
REMARK  138  A    between atoms: _343  and  _345
REMARK  139  A    between atoms: _345  and  _346
REMARK  140  A    between atoms: _345  and  _348
REMARK  141  A    between atoms: _348  and  _349
REMARK  142  A    between atoms: _352  and  _354
REMARK  143  A    between atoms: _354  and  _355
REMARK  144  A    between atoms: _357  and  _359
REMARK  145  A    between atoms: _359  and  _360
REMARK  146  A    between atoms: _363  and  _365
REMARK  147  A    between atoms: _365  and  _366
REMARK  148  A    between atoms: _365  and  _368
REMARK  149  A    between atoms: _368  and  _369
REMARK  150  A    between atoms: _372  and  _374
REMARK  151  A    between atoms: _374  and  _375
REMARK  152  A    between atoms: _374  and  _377
REMARK  153  A    between atoms: _377  and  _378
REMARK  154  A    between atoms: _381  and  _383
REMARK  155  A    between atoms: _383  and  _384
REMARK  156  A    between atoms: _383  and  _386
REMARK  157  A    between atoms: _386  and  _387
REMARK  158  A    between atoms: _390  and  _392
REMARK  159  A    between atoms: _392  and  _393
REMARK  160  A    between atoms: _392  and  _395
REMARK  161  A    between atoms: _398  and  _400
REMARK  162  A    between atoms: _400  and  _401
REMARK  163  A    between atoms: _400  and  _403
REMARK  164  A    between atoms: _403  and  _404
REMARK  165  A    between atoms: _407  and  _409
REMARK  166  A    between atoms: _409  and  _410
REMARK  167  A    between atoms: _409  and  _412
REMARK  168  A    between atoms: _412  and  _413
REMARK  169  A    between atoms: _413  and  _414
REMARK  170  A    between atoms: _414  and  _415
REMARK  171  A    between atoms: _415  and  _416
REMARK  172  A    between atoms: _420  and  _422
REMARK  173  A    between atoms: _422  and  _423
REMARK  174  A    between atoms: _422  and  _425
REMARK  175  A    between atoms: _425  and  _426
REMARK  176  A    between atoms: _426  and  _427
REMARK  177  A    between atoms: _429  and  _431
REMARK  178  A    between atoms: _431  and  _432
REMARK  179  A    between atoms: _431  and  _434
REMARK  180  A    between atoms: _434  and  _435
REMARK  181  A    between atoms: _438  and  _440
REMARK  182  A    between atoms: _440  and  _441
REMARK  183  A    between atoms: _443  and  _445
REMARK  184  A    between atoms: _445  and  _446
REMARK  185  A    between atoms: _448  and  _450
REMARK  186  A    between atoms: _450  and  _451
REMARK  187  A    between atoms: _450  and  _453
REMARK  188  A    between atoms: _453  and  _454
REMARK  189  A    between atoms: _457  and  _459
REMARK  190  A    between atoms: _459  and  _460
REMARK  191  A    between atoms: _462  and  _464
REMARK  192  A    between atoms: _464  and  _465
REMARK  193  A    between atoms: _467  and  _469
REMARK  194  A    between atoms: _469  and  _470
REMARK  195  A    between atoms: _469  and  _472
REMARK  196  A    between atoms: _472  and  _473
REMARK  197  A    between atoms: _479  and  _481
REMARK  198  A    between atoms: _481  and  _482
REMARK  199  A    between atoms: _481  and  _484
REMARK  200  A    between atoms: _487  and  _489
REMARK  201  A    between atoms: _489  and  _490
REMARK  202  A    between atoms: _489  and  _492
REMARK  203  A    between atoms: _495  and  _497
REMARK  204  A    between atoms: _497  and  _498
REMARK  205  A    between atoms: _497  and  _500
REMARK  206  A    between atoms: _500  and  _501
REMARK  207  A    between atoms: _504  and  _506
REMARK  208  A    between atoms: _506  and  _507
REMARK  209  A    between atoms: _506  and  _509
REMARK  210  A    between atoms: _509  and  _510
REMARK  211  A    between atoms: _514  and  _515
REMARK  212  A    between atoms: _520  and  _522
REMARK  213  A    between atoms: _522  and  _523
REMARK  214  A    between atoms: _522  and  _525
REMARK  215  A    between atoms: _528  and  _530
REMARK  216  A    between atoms: _530  and  _531
REMARK  217  A    between atoms: _530  and  _533
REMARK  218  A    between atoms: _533  and  _534
REMARK  219  A    between atoms: _539  and  _541
REMARK  220  A    between atoms: _541  and  _542
REMARK  221  A    between atoms: _541  and  _544
REMARK  222  A    between atoms: _544  and  _545
REMARK  223  A    between atoms: _548  and  _550
REMARK  224  A    between atoms: _550  and  _551
REMARK  225  A    between atoms: _550  and  _553
REMARK  226  A    between atoms: _553  and  _554
REMARK  227  A    between atoms: _557  and  _559
REMARK  228  A    between atoms: _559  and  _560
REMARK  229  A    between atoms: _562  and  _564
REMARK  230  A    between atoms: _564  and  _565
REMARK  231  A    between atoms: _564  and  _567
REMARK  232  A    between atoms: _567  and  _568
REMARK  233  A    between atoms: _568  and  _569
REMARK  234  A    between atoms: _569  and  _570
REMARK  235  A    between atoms: _579  and  _581
REMARK  236  A    between atoms: _581  and  _582
REMARK  237  A    between atoms: _581  and  _584
REMARK  238  A    between atoms: _584  and  _585
REMARK                            x       y       z     vdW  Elec       q    Type
REMARK                         _______ _______ _______ _____ _____    ______ ____
ROOT
ATOM      1  O   HOH     1      23.901  21.106  11.011  0.00  0.00    +0.000 OA
ENDROOT
TORSDOF 0
REMARK  Name = ../refined-set-2016/3nuj/3nuj_pocket.pdb
REMARK  238 active torsions:
REMARK  status: ('A' for Active; 'I' for Inactive)
REMARK    1  A    between atoms: _1  and  _3
REMARK    2  A    between atoms: _3  and  _4
REMARK    3  A    between atoms: _3  and  _6
REMARK    4  A    between atoms: _6  and  _7
REMARK    5  A    between atoms: _7  and  _8
REMARK    6  A    between atoms: _8  and  _9
REMARK    7  A    between atoms: _18  and  _20
REMARK    8  A    between atoms: _20  and  _21
REMARK    9  A    between atoms: _20  and  _23
REMARK   10  A    between atoms: _23  and  _24
REMARK   11  A    between atoms: _27  and  _29
REMARK   12  A    between atoms: _29  and  _30
REMARK   13  A    between atoms: _29  and  _32
REMARK   14  A    between atoms: _32  and  _33
REMARK   15  A    between atoms: _36  and  _38
REMARK   16  A    between atoms: _38  and  _39
REMARK   17  A    between atoms: _38  and  _41
REMARK   18  A    between atoms: _41  and  _42
REMARK   19  A    between atoms: _45  and  _47
REMARK   20  A    between atoms: _47  and  _48
REMARK   21  A    between atoms: _47  and  _50
REMARK   22  A    between atoms: _50  and  _51
REMARK   23  A    between atoms: _54  and  _56
REMARK   24  A    between atoms: _56  and  _57
REMARK   25  A    between atoms: _59  and  _61
REMARK   26  A    between atoms: _61  and  _62
REMARK   27  A    between atoms: _65  and  _67
REMARK   28  A    between atoms: _67  and  _68
REMARK   29  A    between atoms: _67  and  _70
REMARK   30  A    between atoms: _70  and  _71
REMARK   31  A    between atoms: _74  and  _76
REMARK   32  A    between atoms: _76  and  _77
REMARK   33  A    between atoms: _76  and  _79
REMARK   34  A    between atoms: _79  and  _80
REMARK   35  A    between atoms: _83  and  _85
REMARK   36  A    between atoms: _85  and  _86
REMARK   37  A    between atoms: _85  and  _88
REMARK   38  A    between atoms: _88  and  _89
REMARK   39  A    between atoms: _92  and  _94
REMARK   40  A    between atoms: _94  and  _95
REMARK   41  A    between atoms: _94  and  _97
REMARK   42  A    between atoms: _100  and  _102
REMARK   43  A    between atoms: _102  and  _103
REMARK   44  A    between atoms: _102  and  _105
REMARK   45  A    between atoms: _105  and  _106
REMARK   46  A    between atoms: _109  and  _111
REMARK   47  A    between atoms: _111  and  _112
REMARK   48  A    between atoms: _111  and  _114
REMARK   49  A    between atoms: _114  and  _115
REMARK   50  A    between atoms: _115  and  _116
REMARK   51  A    between atoms: _116  and  _117
REMARK   52  A    between atoms: _117  and  _118
REMARK   53  A    between atoms: _122  and  _124
REMARK   54  A    between atoms: _124  and  _125
REMARK   55  A    between atoms: _124  and  _127
REMARK   56  A    between atoms: _127  and  _128
REMARK   57  A    between atoms: _128  and  _129
REMARK   58  A    between atoms: _131  and  _133
REMARK   59  A    between atoms: _133  and  _134
REMARK   60  A    between atoms: _133  and  _136
REMARK   61  A    between atoms: _136  and  _137
REMARK   62  A    between atoms: _140  and  _142
REMARK   63  A    between atoms: _142  and  _143
REMARK   64  A    between atoms: _145  and  _147
REMARK   65  A    between atoms: _147  and  _148
REMARK   66  A    between atoms: _150  and  _152
REMARK   67  A    between atoms: _152  and  _153
REMARK   68  A    between atoms: _152  and  _155
REMARK   69  A    between atoms: _155  and  _156
REMARK   70  A    between atoms: _159  and  _161
REMARK   71  A    between atoms: _161  and  _162
REMARK   72  A    between atoms: _164  and  _166
REMARK   73  A    between atoms: _166  and  _167
REMARK   74  A    between atoms: _169  and  _171
REMARK   75  A    between atoms: _171  and  _172
REMARK   76  A    between atoms: _171  and  _174
REMARK   77  A    between atoms: _174  and  _175
REMARK   78  A    between atoms: _181  and  _183
REMARK   79  A    between atoms: _183  and  _184
REMARK   80  A    between atoms: _183  and  _186
REMARK   81  A    between atoms: _189  and  _191
REMARK   82  A    between atoms: _191  and  _192
REMARK   83  A    between atoms: _191  and  _194
REMARK   84  A    between atoms: _197  and  _199
REMARK   85  A    between atoms: _199  and  _200
REMARK   86  A    between atoms: _199  and  _202
REMARK   87  A    between atoms: _202  and  _203
REMARK   88  A    between atoms: _207  and  _208
REMARK   89  A    between atoms: _213  and  _215
REMARK   90  A    between atoms: _215  and  _216
REMARK   91  A    between atoms: _215  and  _218
REMARK   92  A    between atoms: _218  and  _219
REMARK   93  A    between atoms: _223  and  _224
REMARK   94  A    between atoms: _229  and  _231
REMARK   95  A    between atoms: _231  and  _232
REMARK   96  A    between atoms: _231  and  _234
REMARK   97  A    between atoms: _237  and  _239
REMARK   98  A    between atoms: _239  and  _240
REMARK   99  A    between atoms: _239  and  _242
REMARK  100  A    between atoms: _242  and  _243
REMARK  101  A    between atoms: _248  and  _250
REMARK  102  A    between atoms: _250  and  _251
REMARK  103  A    between atoms: _250  and  _253
REMARK  104  A    between atoms: _253  and  _254
REMARK  105  A    between atoms: _257  and  _259
REMARK  106  A    between atoms: _259  and  _260
REMARK  107  A    between atoms: _259  and  _262
REMARK  108  A    between atoms: _262  and  _263
REMARK  109  A    between atoms: _266  and  _268
REMARK  110  A    between atoms: _268  and  _269
REMARK  111  A    between atoms: _271  and  _273
REMARK  112  A    between atoms: _273  and  _274
REMARK  113  A    between atoms: _273  and  _276
REMARK  114  A    between atoms: _277  and  _278
REMARK  115  A    between atoms: _278  and  _279
REMARK  116  A    between atoms: _288  and  _290
REMARK  117  A    between atoms: _290  and  _291
REMARK  118  A    between atoms: _290  and  _293
REMARK  119  A    between atoms: _293  and  _294
REMARK  120  A    between atoms: _299  and  _301
REMARK  121  A    between atoms: _301  and  _302
REMARK  122  A    between atoms: _301  and  _304
REMARK  123  A    between atoms: _304  and  _305
REMARK  124  A    between atoms: _305  and  _306
REMARK  125  A    between atoms: _306  and  _307
REMARK  126  A    between atoms: _316  and  _318
REMARK  127  A    between atoms: _318  and  _319
REMARK  128  A    between atoms: _318  and  _321
REMARK  129  A    between atoms: _321  and  _322
REMARK  130  A    between atoms: _325  and  _327
REMARK  131  A    between atoms: _327  and  _328
REMARK  132  A    between atoms: _327  and  _330
REMARK  133  A    between atoms: _330  and  _331
REMARK  134  A    between atoms: _334  and  _336
REMARK  135  A    between atoms: _336  and  _337
REMARK  136  A    between atoms: _336  and  _339
REMARK  137  A    between atoms: _339  and  _340
REMARK  138  A    between atoms: _343  and  _345
REMARK  139  A    between atoms: _345  and  _346
REMARK  140  A    between atoms: _345  and  _348
REMARK  141  A    between atoms: _348  and  _349
REMARK  142  A    between atoms: _352  and  _354
REMARK  143  A    between atoms: _354  and  _355
REMARK  144  A    between atoms: _357  and  _359
REMARK  145  A    between atoms: _359  and  _360
REMARK  146  A    between atoms: _363  and  _365
REMARK  147  A    between atoms: _365  and  _366
REMARK  148  A    between atoms: _365  and  _368
REMARK  149  A    between atoms: _368  and  _369
REMARK  150  A    between atoms: _372  and  _374
REMARK  151  A    between atoms: _374  and  _375
REMARK  152  A    between atoms: _374  and  _377
REMARK  153  A    between atoms: _377  and  _378
REMARK  154  A    between atoms: _381  and  _383
REMARK  155  A    between atoms: _383  and  _384
REMARK  156  A    between atoms: _383  and  _386
REMARK  157  A    between atoms: _386  and  _387
REMARK  158  A    between atoms: _390  and  _392
REMARK  159  A    between atoms: _392  and  _393
REMARK  160  A    between atoms: _392  and  _395
REMARK  161  A    between atoms: _398  and  _400
REMARK  162  A    between atoms: _400  and  _401
REMARK  163  A    between atoms: _400  and  _403
REMARK  164  A    between atoms: _403  and  _404
REMARK  165  A    between atoms: _407  and  _409
REMARK  166  A    between atoms: _409  and  _410
REMARK  167  A    between atoms: _409  and  _412
REMARK  168  A    between atoms: _412  and  _413
REMARK  169  A    between atoms: _413  and  _414
REMARK  170  A    between atoms: _414  and  _415
REMARK  171  A    between atoms: _415  and  _416
REMARK  172  A    between atoms: _420  and  _422
REMARK  173  A    between atoms: _422  and  _423
REMARK  174  A    between atoms: _422  and  _425
REMARK  175  A    between atoms: _425  and  _426
REMARK  176  A    between atoms: _426  and  _427
REMARK  177  A    between atoms: _429  and  _431
REMARK  178  A    between atoms: _431  and  _432
REMARK  179  A    between atoms: _431  and  _434
REMARK  180  A    between atoms: _434  and  _435
REMARK  181  A    between atoms: _438  and  _440
REMARK  182  A    between atoms: _440  and  _441
REMARK  183  A    between atoms: _443  and  _445
REMARK  184  A    between atoms: _445  and  _446
REMARK  185  A    between atoms: _448  and  _450
REMARK  186  A    between atoms: _450  and  _451
REMARK  187  A    between atoms: _450  and  _453
REMARK  188  A    between atoms: _453  and  _454
REMARK  189  A    between atoms: _457  and  _459
REMARK  190  A    between atoms: _459  and  _460
REMARK  191  A    between atoms: _462  and  _464
REMARK  192  A    between atoms: _464  and  _465
REMARK  193  A    between atoms: _467  and  _469
REMARK  194  A    between atoms: _469  and  _470
REMARK  195  A    between atoms: _469  and  _472
REMARK  196  A    between atoms: _472  and  _473
REMARK  197  A    between atoms: _479  and  _481
REMARK  198  A    between atoms: _481  and  _482
REMARK  199  A    between atoms: _481  and  _484
REMARK  200  A    between atoms: _487  and  _489
REMARK  201  A    between atoms: _489  and  _490
REMARK  202  A    between atoms: _489  and  _492
REMARK  203  A    between atoms: _495  and  _497
REMARK  204  A    between atoms: _497  and  _498
REMARK  205  A    between atoms: _497  and  _500
REMARK  206  A    between atoms: _500  and  _501
REMARK  207  A    between atoms: _504  and  _506
REMARK  208  A    between atoms: _506  and  _507
REMARK  209  A    between atoms: _506  and  _509
REMARK  210  A    between atoms: _509  and  _510
REMARK  211  A    between atoms: _514  and  _515
REMARK  212  A    between atoms: _520  and  _522
REMARK  213  A    between atoms: _522  and  _523
REMARK  214  A    between atoms: _522  and  _525
REMARK  215  A    between atoms: _528  and  _530
REMARK  216  A    between atoms: _530  and  _531
REMARK  217  A    between atoms: _530  and  _533
REMARK  218  A    between atoms: _533  and  _534
REMARK  219  A    between atoms: _539  and  _541
REMARK  220  A    between atoms: _541  and  _542
REMARK  221  A    between atoms: _541  and  _544
REMARK  222  A    between atoms: _544  and  _545
REMARK  223  A    between atoms: _548  and  _550
REMARK  224  A    between atoms: _550  and  _551
REMARK  225  A    between atoms: _550  and  _553
REMARK  226  A    between atoms: _553  and  _554
REMARK  227  A    between atoms: _557  and  _559
REMARK  228  A    between atoms: _559  and  _560
REMARK  229  A    between atoms: _562  and  _564
REMARK  230  A    between atoms: _564  and  _565
REMARK  231  A    between atoms: _564  and  _567
REMARK  232  A    between atoms: _567  and  _568
REMARK  233  A    between atoms: _568  and  _569
REMARK  234  A    between atoms: _569  and  _570
REMARK  235  A    between atoms: _579  and  _581
REMARK  236  A    between atoms: _581  and  _582
REMARK  237  A    between atoms: _581  and  _584
REMARK  238  A    between atoms: _584  and  _585
REMARK                            x       y       z     vdW  Elec       q    Type
REMARK                         _______ _______ _______ _____ _____    ______ ____
ROOT
ATOM      1  O   HOH     1       3.982   9.671  15.537  0.00  0.00    +0.000 OA
ENDROOT
TORSDOF 0
REMARK  Name = ../refined-set-2016/3nuj/3nuj_pocket.pdb
REMARK  238 active torsions:
REMARK  status: ('A' for Active; 'I' for Inactive)
REMARK    1  A    between atoms: _1  and  _3
REMARK    2  A    between atoms: _3  and  _4
REMARK    3  A    between atoms: _3  and  _6
REMARK    4  A    between atoms: _6  and  _7
REMARK    5  A    between atoms: _7  and  _8
REMARK    6  A    between atoms: _8  and  _9
REMARK    7  A    between atoms: _18  and  _20
REMARK    8  A    between atoms: _20  and  _21
REMARK    9  A    between atoms: _20  and  _23
REMARK   10  A    between atoms: _23  and  _24
REMARK   11  A    between atoms: _27  and  _29
REMARK   12  A    between atoms: _29  and  _30
REMARK   13  A    between atoms: _29  and  _32
REMARK   14  A    between atoms: _32  and  _33
REMARK   15  A    between atoms: _36  and  _38
REMARK   16  A    between atoms: _38  and  _39
REMARK   17  A    between atoms: _38  and  _41
REMARK   18  A    between atoms: _41  and  _42
REMARK   19  A    between atoms: _45  and  _47
REMARK   20  A    between atoms: _47  and  _48
REMARK   21  A    between atoms: _47  and  _50
REMARK   22  A    between atoms: _50  and  _51
REMARK   23  A    between atoms: _54  and  _56
REMARK   24  A    between atoms: _56  and  _57
REMARK   25  A    between atoms: _59  and  _61
REMARK   26  A    between atoms: _61  and  _62
REMARK   27  A    between atoms: _65  and  _67
REMARK   28  A    between atoms: _67  and  _68
REMARK   29  A    between atoms: _67  and  _70
REMARK   30  A    between atoms: _70  and  _71
REMARK   31  A    between atoms: _74  and  _76
REMARK   32  A    between atoms: _76  and  _77
REMARK   33  A    between atoms: _76  and  _79
REMARK   34  A    between atoms: _79  and  _80
REMARK   35  A    between atoms: _83  and  _85
REMARK   36  A    between atoms: _85  and  _86
REMARK   37  A    between atoms: _85  and  _88
REMARK   38  A    between atoms: _88  and  _89
REMARK   39  A    between atoms: _92  and  _94
REMARK   40  A    between atoms: _94  and  _95
REMARK   41  A    between atoms: _94  and  _97
REMARK   42  A    between atoms: _100  and  _102
REMARK   43  A    between atoms: _102  and  _103
REMARK   44  A    between atoms: _102  and  _105
REMARK   45  A    between atoms: _105  and  _106
REMARK   46  A    between atoms: _109  and  _111
REMARK   47  A    between atoms: _111  and  _112
REMARK   48  A    between atoms: _111  and  _114
REMARK   49  A    between atoms: _114  and  _115
REMARK   50  A    between atoms: _115  and  _116
REMARK   51  A    between atoms: _116  and  _117
REMARK   52  A    between atoms: _117  and  _118
REMARK   53  A    between atoms: _122  and  _124
REMARK   54  A    between atoms: _124  and  _125
REMARK   55  A    between atoms: _124  and  _127
REMARK   56  A    between atoms: _127  and  _128
REMARK   57  A    between atoms: _128  and  _129
REMARK   58  A    between atoms: _131  and  _133
REMARK   59  A    between atoms: _133  and  _134
REMARK   60  A    between atoms: _133  and  _136
REMARK   61  A    between atoms: _136  and  _137
REMARK   62  A    between atoms: _140  and  _142
REMARK   63  A    between atoms: _142  and  _143
REMARK   64  A    between atoms: _145  and  _147
REMARK   65  A    between atoms: _147  and  _148
REMARK   66  A    between atoms: _150  and  _152
REMARK   67  A    between atoms: _152  and  _153
REMARK   68  A    between atoms: _152  and  _155
REMARK   69  A    between atoms: _155  and  _156
REMARK   70  A    between atoms: _159  and  _161
REMARK   71  A    between atoms: _161  and  _162
REMARK   72  A    between atoms: _164  and  _166
REMARK   73  A    between atoms: _166  and  _167
REMARK   74  A    between atoms: _169  and  _171
REMARK   75  A    between atoms: _171  and  _172
REMARK   76  A    between atoms: _171  and  _174
REMARK   77  A    between atoms: _174  and  _175
REMARK   78  A    between atoms: _181  and  _183
REMARK   79  A    between atoms: _183  and  _184
REMARK   80  A    between atoms: _183  and  _186
REMARK   81  A    between atoms: _189  and  _191
REMARK   82  A    between atoms: _191  and  _192
REMARK   83  A    between atoms: _191  and  _194
REMARK   84  A    between atoms: _197  and  _199
REMARK   85  A    between atoms: _199  and  _200
REMARK   86  A    between atoms: _199  and  _202
REMARK   87  A    between atoms: _202  and  _203
REMARK   88  A    between atoms: _207  and  _208
REMARK   89  A    between atoms: _213  and  _215
REMARK   90  A    between atoms: _215  and  _216
REMARK   91  A    between atoms: _215  and  _218
REMARK   92  A    between atoms: _218  and  _219
REMARK   93  A    between atoms: _223  and  _224
REMARK   94  A    between atoms: _229  and  _231
REMARK   95  A    between atoms: _231  and  _232
REMARK   96  A    between atoms: _231  and  _234
REMARK   97  A    between atoms: _237  and  _239
REMARK   98  A    between atoms: _239  and  _240
REMARK   99  A    between atoms: _239  and  _242
REMARK  100  A    between atoms: _242  and  _243
REMARK  101  A    between atoms: _248  and  _250
REMARK  102  A    between atoms: _250  and  _251
REMARK  103  A    between atoms: _250  and  _253
REMARK  104  A    between atoms: _253  and  _254
REMARK  105  A    between atoms: _257  and  _259
REMARK  106  A    between atoms: _259  and  _260
REMARK  107  A    between atoms: _259  and  _262
REMARK  108  A    between atoms: _262  and  _263
REMARK  109  A    between atoms: _266  and  _268
REMARK  110  A    between atoms: _268  and  _269
REMARK  111  A    between atoms: _271  and  _273
REMARK  112  A    between atoms: _273  and  _274
REMARK  113  A    between atoms: _273  and  _276
REMARK  114  A    between atoms: _277  and  _278
REMARK  115  A    between atoms: _278  and  _279
REMARK  116  A    between atoms: _288  and  _290
REMARK  117  A    between atoms: _290  and  _291
REMARK  118  A    between atoms: _290  and  _293
REMARK  119  A    between atoms: _293  and  _294
REMARK  120  A    between atoms: _299  and  _301
REMARK  121  A    between atoms: _301  and  _302
REMARK  122  A    between atoms: _301  and  _304
REMARK  123  A    between atoms: _304  and  _305
REMARK  124  A    between atoms: _305  and  _306
REMARK  125  A    between atoms: _306  and  _307
REMARK  126  A    between atoms: _316  and  _318
REMARK  127  A    between atoms: _318  and  _319
REMARK  128  A    between atoms: _318  and  _321
REMARK  129  A    between atoms: _321  and  _322
REMARK  130  A    between atoms: _325  and  _327
REMARK  131  A    between atoms: _327  and  _328
REMARK  132  A    between atoms: _327  and  _330
REMARK  133  A    between atoms: _330  and  _331
REMARK  134  A    between atoms: _334  and  _336
REMARK  135  A    between atoms: _336  and  _337
REMARK  136  A    between atoms: _336  and  _339
REMARK  137  A    between atoms: _339  and  _340
REMARK  138  A    between atoms: _343  and  _345
REMARK  139  A    between atoms: _345  and  _346
REMARK  140  A    between atoms: _345  and  _348
REMARK  141  A    between atoms: _348  and  _349
REMARK  142  A    between atoms: _352  and  _354
REMARK  143  A    between atoms: _354  and  _355
REMARK  144  A    between atoms: _357  and  _359
REMARK  145  A    between atoms: _359  and  _360
REMARK  146  A    between atoms: _363  and  _365
REMARK  147  A    between atoms: _365  and  _366
REMARK  148  A    between atoms: _365  and  _368
REMARK  149  A    between atoms: _368  and  _369
REMARK  150  A    between atoms: _372  and  _374
REMARK  151  A    between atoms: _374  and  _375
REMARK  152  A    between atoms: _374  and  _377
REMARK  153  A    between atoms: _377  and  _378
REMARK  154  A    between atoms: _381  and  _383
REMARK  155  A    between atoms: _383  and  _384
REMARK  156  A    between atoms: _383  and  _386
REMARK  157  A    between atoms: _386  and  _387
REMARK  158  A    between atoms: _390  and  _392
REMARK  159  A    between atoms: _392  and  _393
REMARK  160  A    between atoms: _392  and  _395
REMARK  161  A    between atoms: _398  and  _400
REMARK  162  A    between atoms: _400  and  _401
REMARK  163  A    between atoms: _400  and  _403
REMARK  164  A    between atoms: _403  and  _404
REMARK  165  A    between atoms: _407  and  _409
REMARK  166  A    between atoms: _409  and  _410
REMARK  167  A    between atoms: _409  and  _412
REMARK  168  A    between atoms: _412  and  _413
REMARK  169  A    between atoms: _413  and  _414
REMARK  170  A    between atoms: _414  and  _415
REMARK  171  A    between atoms: _415  and  _416
REMARK  172  A    between atoms: _420  and  _422
REMARK  173  A    between atoms: _422  and  _423
REMARK  174  A    between atoms: _422  and  _425
REMARK  175  A    between atoms: _425  and  _426
REMARK  176  A    between atoms: _426  and  _427
REMARK  177  A    between atoms: _429  and  _431
REMARK  178  A    between atoms: _431  and  _432
REMARK  179  A    between atoms: _431  and  _434
REMARK  180  A    between atoms: _434  and  _435
REMARK  181  A    between atoms: _438  and  _440
REMARK  182  A    between atoms: _440  and  _441
REMARK  183  A    between atoms: _443  and  _445
REMARK  184  A    between atoms: _445  and  _446
REMARK  185  A    between atoms: _448  and  _450
REMARK  186  A    between atoms: _450  and  _451
REMARK  187  A    between atoms: _450  and  _453
REMARK  188  A    between atoms: _453  and  _454
REMARK  189  A    between atoms: _457  and  _459
REMARK  190  A    between atoms: _459  and  _460
REMARK  191  A    between atoms: _462  and  _464
REMARK  192  A    between atoms: _464  and  _465
REMARK  193  A    between atoms: _467  and  _469
REMARK  194  A    between atoms: _469  and  _470
REMARK  195  A    between atoms: _469  and  _472
REMARK  196  A    between atoms: _472  and  _473
REMARK  197  A    between atoms: _479  and  _481
REMARK  198  A    between atoms: _481  and  _482
REMARK  199  A    between atoms: _481  and  _484
REMARK  200  A    between atoms: _487  and  _489
REMARK  201  A    between atoms: _489  and  _490
REMARK  202  A    between atoms: _489  and  _492
REMARK  203  A    between atoms: _495  and  _497
REMARK  204  A    between atoms: _497  and  _498
REMARK  205  A    between atoms: _497  and  _500
REMARK  206  A    between atoms: _500  and  _501
REMARK  207  A    between atoms: _504  and  _506
REMARK  208  A    between atoms: _506  and  _507
REMARK  209  A    between atoms: _506  and  _509
REMARK  210  A    between atoms: _509  and  _510
REMARK  211  A    between atoms: _514  and  _515
REMARK  212  A    between atoms: _520  and  _522
REMARK  213  A    between atoms: _522  and  _523
REMARK  214  A    between atoms: _522  and  _525
REMARK  215  A    between atoms: _528  and  _530
REMARK  216  A    between atoms: _530  and  _531
REMARK  217  A    between atoms: _530  and  _533
REMARK  218  A    between atoms: _533  and  _534
REMARK  219  A    between atoms: _539  and  _541
REMARK  220  A    between atoms: _541  and  _542
REMARK  221  A    between atoms: _541  and  _544
REMARK  222  A    between atoms: _544  and  _545
REMARK  223  A    between atoms: _548  and  _550
REMARK  224  A    between atoms: _550  and  _551
REMARK  225  A    between atoms: _550  and  _553
REMARK  226  A    between atoms: _553  and  _554
REMARK  227  A    between atoms: _557  and  _559
REMARK  228  A    between atoms: _559  and  _560
REMARK  229  A    between atoms: _562  and  _564
REMARK  230  A    between atoms: _564  and  _565
REMARK  231  A    between atoms: _564  and  _567
REMARK  232  A    between atoms: _567  and  _568
REMARK  233  A    between atoms: _568  and  _569
REMARK  234  A    between atoms: _569  and  _570
REMARK  235  A    between atoms: _579  and  _581
REMARK  236  A    between atoms: _581  and  _582
REMARK  237  A    between atoms: _581  and  _584
REMARK  238  A    between atoms: _584  and  _585
REMARK                            x       y       z     vdW  Elec       q    Type
REMARK                         _______ _______ _______ _____ _____    ______ ____
ROOT
ATOM      1  O   HOH     1      21.387  19.150  18.175  0.00  0.00    +0.000 OA
ENDROOT
TORSDOF 0
REMARK  Name = ../refined-set-2016/3nuj/3nuj_pocket.pdb
REMARK  238 active torsions:
REMARK  status: ('A' for Active; 'I' for Inactive)
REMARK    1  A    between atoms: _1  and  _3
REMARK    2  A    between atoms: _3  and  _4
REMARK    3  A    between atoms: _3  and  _6
REMARK    4  A    between atoms: _6  and  _7
REMARK    5  A    between atoms: _7  and  _8
REMARK    6  A    between atoms: _8  and  _9
REMARK    7  A    between atoms: _18  and  _20
REMARK    8  A    between atoms: _20  and  _21
REMARK    9  A    between atoms: _20  and  _23
REMARK   10  A    between atoms: _23  and  _24
REMARK   11  A    between atoms: _27  and  _29
REMARK   12  A    between atoms: _29  and  _30
REMARK   13  A    between atoms: _29  and  _32
REMARK   14  A    between atoms: _32  and  _33
REMARK   15  A    between atoms: _36  and  _38
REMARK   16  A    between atoms: _38  and  _39
REMARK   17  A    between atoms: _38  and  _41
REMARK   18  A    between atoms: _41  and  _42
REMARK   19  A    between atoms: _45  and  _47
REMARK   20  A    between atoms: _47  and  _48
REMARK   21  A    between atoms: _47  and  _50
REMARK   22  A    between atoms: _50  and  _51
REMARK   23  A    between atoms: _54  and  _56
REMARK   24  A    between atoms: _56  and  _57
REMARK   25  A    between atoms: _59  and  _61
REMARK   26  A    between atoms: _61  and  _62
REMARK   27  A    between atoms: _65  and  _67
REMARK   28  A    between atoms: _67  and  _68
REMARK   29  A    between atoms: _67  and  _70
REMARK   30  A    between atoms: _70  and  _71
REMARK   31  A    between atoms: _74  and  _76
REMARK   32  A    between atoms: _76  and  _77
REMARK   33  A    between atoms: _76  and  _79
REMARK   34  A    between atoms: _79  and  _80
REMARK   35  A    between atoms: _83  and  _85
REMARK   36  A    between atoms: _85  and  _86
REMARK   37  A    between atoms: _85  and  _88
REMARK   38  A    between atoms: _88  and  _89
REMARK   39  A    between atoms: _92  and  _94
REMARK   40  A    between atoms: _94  and  _95
REMARK   41  A    between atoms: _94  and  _97
REMARK   42  A    between atoms: _100  and  _102
REMARK   43  A    between atoms: _102  and  _103
REMARK   44  A    between atoms: _102  and  _105
REMARK   45  A    between atoms: _105  and  _106
REMARK   46  A    between atoms: _109  and  _111
REMARK   47  A    between atoms: _111  and  _112
REMARK   48  A    between atoms: _111  and  _114
REMARK   49  A    between atoms: _114  and  _115
REMARK   50  A    between atoms: _115  and  _116
REMARK   51  A    between atoms: _116  and  _117
REMARK   52  A    between atoms: _117  and  _118
REMARK   53  A    between atoms: _122  and  _124
REMARK   54  A    between atoms: _124  and  _125
REMARK   55  A    between atoms: _124  and  _127
REMARK   56  A    between atoms: _127  and  _128
REMARK   57  A    between atoms: _128  and  _129
REMARK   58  A    between atoms: _131  and  _133
REMARK   59  A    between atoms: _133  and  _134
REMARK   60  A    between atoms: _133  and  _136
REMARK   61  A    between atoms: _136  and  _137
REMARK   62  A    between atoms: _140  and  _142
REMARK   63  A    between atoms: _142  and  _143
REMARK   64  A    between atoms: _145  and  _147
REMARK   65  A    between atoms: _147  and  _148
REMARK   66  A    between atoms: _150  and  _152
REMARK   67  A    between atoms: _152  and  _153
REMARK   68  A    between atoms: _152  and  _155
REMARK   69  A    between atoms: _155  and  _156
REMARK   70  A    between atoms: _159  and  _161
REMARK   71  A    between atoms: _161  and  _162
REMARK   72  A    between atoms: _164  and  _166
REMARK   73  A    between atoms: _166  and  _167
REMARK   74  A    between atoms: _169  and  _171
REMARK   75  A    between atoms: _171  and  _172
REMARK   76  A    between atoms: _171  and  _174
REMARK   77  A    between atoms: _174  and  _175
REMARK   78  A    between atoms: _181  and  _183
REMARK   79  A    between atoms: _183  and  _184
REMARK   80  A    between atoms: _183  and  _186
REMARK   81  A    between atoms: _189  and  _191
REMARK   82  A    between atoms: _191  and  _192
REMARK   83  A    between atoms: _191  and  _194
REMARK   84  A    between atoms: _197  and  _199
REMARK   85  A    between atoms: _199  and  _200
REMARK   86  A    between atoms: _199  and  _202
REMARK   87  A    between atoms: _202  and  _203
REMARK   88  A    between atoms: _207  and  _208
REMARK   89  A    between atoms: _213  and  _215
REMARK   90  A    between atoms: _215  and  _216
REMARK   91  A    between atoms: _215  and  _218
REMARK   92  A    between atoms: _218  and  _219
REMARK   93  A    between atoms: _223  and  _224
REMARK   94  A    between atoms: _229  and  _231
REMARK   95  A    between atoms: _231  and  _232
REMARK   96  A    between atoms: _231  and  _234
REMARK   97  A    between atoms: _237  and  _239
REMARK   98  A    between atoms: _239  and  _240
REMARK   99  A    between atoms: _239  and  _242
REMARK  100  A    between atoms: _242  and  _243
REMARK  101  A    between atoms: _248  and  _250
REMARK  102  A    between atoms: _250  and  _251
REMARK  103  A    between atoms: _250  and  _253
REMARK  104  A    between atoms: _253  and  _254
REMARK  105  A    between atoms: _257  and  _259
REMARK  106  A    between atoms: _259  and  _260
REMARK  107  A    between atoms: _259  and  _262
REMARK  108  A    between atoms: _262  and  _263
REMARK  109  A    between atoms: _266  and  _268
REMARK  110  A    between atoms: _268  and  _269
REMARK  111  A    between atoms: _271  and  _273
REMARK  112  A    between atoms: _273  and  _274
REMARK  113  A    between atoms: _273  and  _276
REMARK  114  A    between atoms: _277  and  _278
REMARK  115  A    between atoms: _278  and  _279
REMARK  116  A    between atoms: _288  and  _290
REMARK  117  A    between atoms: _290  and  _291
REMARK  118  A    between atoms: _290  and  _293
REMARK  119  A    between atoms: _293  and  _294
REMARK  120  A    between atoms: _299  and  _301
REMARK  121  A    between atoms: _301  and  _302
REMARK  122  A    between atoms: _301  and  _304
REMARK  123  A    between atoms: _304  and  _305
REMARK  124  A    between atoms: _305  and  _306
REMARK  125  A    between atoms: _306  and  _307
REMARK  126  A    between atoms: _316  and  _318
REMARK  127  A    between atoms: _318  and  _319
REMARK  128  A    between atoms: _318  and  _321
REMARK  129  A    between atoms: _321  and  _322
REMARK  130  A    between atoms: _325  and  _327
REMARK  131  A    between atoms: _327  and  _328
REMARK  132  A    between atoms: _327  and  _330
REMARK  133  A    between atoms: _330  and  _331
REMARK  134  A    between atoms: _334  and  _336
REMARK  135  A    between atoms: _336  and  _337
REMARK  136  A    between atoms: _336  and  _339
REMARK  137  A    between atoms: _339  and  _340
REMARK  138  A    between atoms: _343  and  _345
REMARK  139  A    between atoms: _345  and  _346
REMARK  140  A    between atoms: _345  and  _348
REMARK  141  A    between atoms: _348  and  _349
REMARK  142  A    between atoms: _352  and  _354
REMARK  143  A    between atoms: _354  and  _355
REMARK  144  A    between atoms: _357  and  _359
REMARK  145  A    between atoms: _359  and  _360
REMARK  146  A    between atoms: _363  and  _365
REMARK  147  A    between atoms: _365  and  _366
REMARK  148  A    between atoms: _365  and  _368
REMARK  149  A    between atoms: _368  and  _369
REMARK  150  A    between atoms: _372  and  _374
REMARK  151  A    between atoms: _374  and  _375
REMARK  152  A    between atoms: _374  and  _377
REMARK  153  A    between atoms: _377  and  _378
REMARK  154  A    between atoms: _381  and  _383
REMARK  155  A    between atoms: _383  and  _384
REMARK  156  A    between atoms: _383  and  _386
REMARK  157  A    between atoms: _386  and  _387
REMARK  158  A    between atoms: _390  and  _392
REMARK  159  A    between atoms: _392  and  _393
REMARK  160  A    between atoms: _392  and  _395
REMARK  161  A    between atoms: _398  and  _400
REMARK  162  A    between atoms: _400  and  _401
REMARK  163  A    between atoms: _400  and  _403
REMARK  164  A    between atoms: _403  and  _404
REMARK  165  A    between atoms: _407  and  _409
REMARK  166  A    between atoms: _409  and  _410
REMARK  167  A    between atoms: _409  and  _412
REMARK  168  A    between atoms: _412  and  _413
REMARK  169  A    between atoms: _413  and  _414
REMARK  170  A    between atoms: _414  and  _415
REMARK  171  A    between atoms: _415  and  _416
REMARK  172  A    between atoms: _420  and  _422
REMARK  173  A    between atoms: _422  and  _423
REMARK  174  A    between atoms: _422  and  _425
REMARK  175  A    between atoms: _425  and  _426
REMARK  176  A    between atoms: _426  and  _427
REMARK  177  A    between atoms: _429  and  _431
REMARK  178  A    between atoms: _431  and  _432
REMARK  179  A    between atoms: _431  and  _434
REMARK  180  A    between atoms: _434  and  _435
REMARK  181  A    between atoms: _438  and  _440
REMARK  182  A    between atoms: _440  and  _441
REMARK  183  A    between atoms: _443  and  _445
REMARK  184  A    between atoms: _445  and  _446
REMARK  185  A    between atoms: _448  and  _450
REMARK  186  A    between atoms: _450  and  _451
REMARK  187  A    between atoms: _450  and  _453
REMARK  188  A    between atoms: _453  and  _454
REMARK  189  A    between atoms: _457  and  _459
REMARK  190  A    between atoms: _459  and  _460
REMARK  191  A    between atoms: _462  and  _464
REMARK  192  A    between atoms: _464  and  _465
REMARK  193  A    between atoms: _467  and  _469
REMARK  194  A    between atoms: _469  and  _470
REMARK  195  A    between atoms: _469  and  _472
REMARK  196  A    between atoms: _472  and  _473
REMARK  197  A    between atoms: _479  and  _481
REMARK  198  A    between atoms: _481  and  _482
REMARK  199  A    between atoms: _481  and  _484
REMARK  200  A    between atoms: _487  and  _489
REMARK  201  A    between atoms: _489  and  _490
REMARK  202  A    between atoms: _489  and  _492
REMARK  203  A    between atoms: _495  and  _497
REMARK  204  A    between atoms: _497  and  _498
REMARK  205  A    between atoms: _497  and  _500
REMARK  206  A    between atoms: _500  and  _501
REMARK  207  A    between atoms: _504  and  _506
REMARK  208  A    between atoms: _506  and  _507
REMARK  209  A    between atoms: _506  and  _509
REMARK  210  A    between atoms: _509  and  _510
REMARK  211  A    between atoms: _514  and  _515
REMARK  212  A    between atoms: _520  and  _522
REMARK  213  A    between atoms: _522  and  _523
REMARK  214  A    between atoms: _522  and  _525
REMARK  215  A    between atoms: _528  and  _530
REMARK  216  A    between atoms: _530  and  _531
REMARK  217  A    between atoms: _530  and  _533
REMARK  218  A    between atoms: _533  and  _534
REMARK  219  A    between atoms: _539  and  _541
REMARK  220  A    between atoms: _541  and  _542
REMARK  221  A    between atoms: _541  and  _544
REMARK  222  A    between atoms: _544  and  _545
REMARK  223  A    between atoms: _548  and  _550
REMARK  224  A    between atoms: _550  and  _551
REMARK  225  A    between atoms: _550  and  _553
REMARK  226  A    between atoms: _553  and  _554
REMARK  227  A    between atoms: _557  and  _559
REMARK  228  A    between atoms: _559  and  _560
REMARK  229  A    between atoms: _562  and  _564
REMARK  230  A    between atoms: _564  and  _565
REMARK  231  A    between atoms: _564  and  _567
REMARK  232  A    between atoms: _567  and  _568
REMARK  233  A    between atoms: _568  and  _569
REMARK  234  A    between atoms: _569  and  _570
REMARK  235  A    between atoms: _579  and  _581
REMARK  236  A    between atoms: _581  and  _582
REMARK  237  A    between atoms: _581  and  _584
REMARK  238  A    between atoms: _584  and  _585
REMARK                            x       y       z     vdW  Elec       q    Type
REMARK                         _______ _______ _______ _____ _____    ______ ____
ROOT
ATOM      1  O   HOH     1      19.713  26.869  26.505  0.00  0.00    +0.000 OA
ENDROOT
TORSDOF 0
REMARK  Name = ../refined-set-2016/3nuj/3nuj_pocket.pdb
REMARK  238 active torsions:
REMARK  status: ('A' for Active; 'I' for Inactive)
REMARK    1  A    between atoms: _1  and  _3
REMARK    2  A    between atoms: _3  and  _4
REMARK    3  A    between atoms: _3  and  _6
REMARK    4  A    between atoms: _6  and  _7
REMARK    5  A    between atoms: _7  and  _8
REMARK    6  A    between atoms: _8  and  _9
REMARK    7  A    between atoms: _18  and  _20
REMARK    8  A    between atoms: _20  and  _21
REMARK    9  A    between atoms: _20  and  _23
REMARK   10  A    between atoms: _23  and  _24
REMARK   11  A    between atoms: _27  and  _29
REMARK   12  A    between atoms: _29  and  _30
REMARK   13  A    between atoms: _29  and  _32
REMARK   14  A    between atoms: _32  and  _33
REMARK   15  A    between atoms: _36  and  _38
REMARK   16  A    between atoms: _38  and  _39
REMARK   17  A    between atoms: _38  and  _41
REMARK   18  A    between atoms: _41  and  _42
REMARK   19  A    between atoms: _45  and  _47
REMARK   20  A    between atoms: _47  and  _48
REMARK   21  A    between atoms: _47  and  _50
REMARK   22  A    between atoms: _50  and  _51
REMARK   23  A    between atoms: _54  and  _56
REMARK   24  A    between atoms: _56  and  _57
REMARK   25  A    between atoms: _59  and  _61
REMARK   26  A    between atoms: _61  and  _62
REMARK   27  A    between atoms: _65  and  _67
REMARK   28  A    between atoms: _67  and  _68
REMARK   29  A    between atoms: _67  and  _70
REMARK   30  A    between atoms: _70  and  _71
REMARK   31  A    between atoms: _74  and  _76
REMARK   32  A    between atoms: _76  and  _77
REMARK   33  A    between atoms: _76  and  _79
REMARK   34  A    between atoms: _79  and  _80
REMARK   35  A    between atoms: _83  and  _85
REMARK   36  A    between atoms: _85  and  _86
REMARK   37  A    between atoms: _85  and  _88
REMARK   38  A    between atoms: _88  and  _89
REMARK   39  A    between atoms: _92  and  _94
REMARK   40  A    between atoms: _94  and  _95
REMARK   41  A    between atoms: _94  and  _97
REMARK   42  A    between atoms: _100  and  _102
REMARK   43  A    between atoms: _102  and  _103
REMARK   44  A    between atoms: _102  and  _105
REMARK   45  A    between atoms: _105  and  _106
REMARK   46  A    between atoms: _109  and  _111
REMARK   47  A    between atoms: _111  and  _112
REMARK   48  A    between atoms: _111  and  _114
REMARK   49  A    between atoms: _114  and  _115
REMARK   50  A    between atoms: _115  and  _116
REMARK   51  A    between atoms: _116  and  _117
REMARK   52  A    between atoms: _117  and  _118
REMARK   53  A    between atoms: _122  and  _124
REMARK   54  A    between atoms: _124  and  _125
REMARK   55  A    between atoms: _124  and  _127
REMARK   56  A    between atoms: _127  and  _128
REMARK   57  A    between atoms: _128  and  _129
REMARK   58  A    between atoms: _131  and  _133
REMARK   59  A    between atoms: _133  and  _134
REMARK   60  A    between atoms: _133  and  _136
REMARK   61  A    between atoms: _136  and  _137
REMARK   62  A    between atoms: _140  and  _142
REMARK   63  A    between atoms: _142  and  _143
REMARK   64  A    between atoms: _145  and  _147
REMARK   65  A    between atoms: _147  and  _148
REMARK   66  A    between atoms: _150  and  _152
REMARK   67  A    between atoms: _152  and  _153
REMARK   68  A    between atoms: _152  and  _155
REMARK   69  A    between atoms: _155  and  _156
REMARK   70  A    between atoms: _159  and  _161
REMARK   71  A    between atoms: _161  and  _162
REMARK   72  A    between atoms: _164  and  _166
REMARK   73  A    between atoms: _166  and  _167
REMARK   74  A    between atoms: _169  and  _171
REMARK   75  A    between atoms: _171  and  _172
REMARK   76  A    between atoms: _171  and  _174
REMARK   77  A    between atoms: _174  and  _175
REMARK   78  A    between atoms: _181  and  _183
REMARK   79  A    between atoms: _183  and  _184
REMARK   80  A    between atoms: _183  and  _186
REMARK   81  A    between atoms: _189  and  _191
REMARK   82  A    between atoms: _191  and  _192
REMARK   83  A    between atoms: _191  and  _194
REMARK   84  A    between atoms: _197  and  _199
REMARK   85  A    between atoms: _199  and  _200
REMARK   86  A    between atoms: _199  and  _202
REMARK   87  A    between atoms: _202  and  _203
REMARK   88  A    between atoms: _207  and  _208
REMARK   89  A    between atoms: _213  and  _215
REMARK   90  A    between atoms: _215  and  _216
REMARK   91  A    between atoms: _215  and  _218
REMARK   92  A    between atoms: _218  and  _219
REMARK   93  A    between atoms: _223  and  _224
REMARK   94  A    between atoms: _229  and  _231
REMARK   95  A    between atoms: _231  and  _232
REMARK   96  A    between atoms: _231  and  _234
REMARK   97  A    between atoms: _237  and  _239
REMARK   98  A    between atoms: _239  and  _240
REMARK   99  A    between atoms: _239  and  _242
REMARK  100  A    between atoms: _242  and  _243
REMARK  101  A    between atoms: _248  and  _250
REMARK  102  A    between atoms: _250  and  _251
REMARK  103  A    between atoms: _250  and  _253
REMARK  104  A    between atoms: _253  and  _254
REMARK  105  A    between atoms: _257  and  _259
REMARK  106  A    between atoms: _259  and  _260
REMARK  107  A    between atoms: _259  and  _262
REMARK  108  A    between atoms: _262  and  _263
REMARK  109  A    between atoms: _266  and  _268
REMARK  110  A    between atoms: _268  and  _269
REMARK  111  A    between atoms: _271  and  _273
REMARK  112  A    between atoms: _273  and  _274
REMARK  113  A    between atoms: _273  and  _276
REMARK  114  A    between atoms: _277  and  _278
REMARK  115  A    between atoms: _278  and  _279
REMARK  116  A    between atoms: _288  and  _290
REMARK  117  A    between atoms: _290  and  _291
REMARK  118  A    between atoms: _290  and  _293
REMARK  119  A    between atoms: _293  and  _294
REMARK  120  A    between atoms: _299  and  _301
REMARK  121  A    between atoms: _301  and  _302
REMARK  122  A    between atoms: _301  and  _304
REMARK  123  A    between atoms: _304  and  _305
REMARK  124  A    between atoms: _305  and  _306
REMARK  125  A    between atoms: _306  and  _307
REMARK  126  A    between atoms: _316  and  _318
REMARK  127  A    between atoms: _318  and  _319
REMARK  128  A    between atoms: _318  and  _321
REMARK  129  A    between atoms: _321  and  _322
REMARK  130  A    between atoms: _325  and  _327
REMARK  131  A    between atoms: _327  and  _328
REMARK  132  A    between atoms: _327  and  _330
REMARK  133  A    between atoms: _330  and  _331
REMARK  134  A    between atoms: _334  and  _336
REMARK  135  A    between atoms: _336  and  _337
REMARK  136  A    between atoms: _336  and  _339
REMARK  137  A    between atoms: _339  and  _340
REMARK  138  A    between atoms: _343  and  _345
REMARK  139  A    between atoms: _345  and  _346
REMARK  140  A    between atoms: _345  and  _348
REMARK  141  A    between atoms: _348  and  _349
REMARK  142  A    between atoms: _352  and  _354
REMARK  143  A    between atoms: _354  and  _355
REMARK  144  A    between atoms: _357  and  _359
REMARK  145  A    between atoms: _359  and  _360
REMARK  146  A    between atoms: _363  and  _365
REMARK  147  A    between atoms: _365  and  _366
REMARK  148  A    between atoms: _365  and  _368
REMARK  149  A    between atoms: _368  and  _369
REMARK  150  A    between atoms: _372  and  _374
REMARK  151  A    between atoms: _374  and  _375
REMARK  152  A    between atoms: _374  and  _377
REMARK  153  A    between atoms: _377  and  _378
REMARK  154  A    between atoms: _381  and  _383
REMARK  155  A    between atoms: _383  and  _384
REMARK  156  A    between atoms: _383  and  _386
REMARK  157  A    between atoms: _386  and  _387
REMARK  158  A    between atoms: _390  and  _392
REMARK  159  A    between atoms: _392  and  _393
REMARK  160  A    between atoms: _392  and  _395
REMARK  161  A    between atoms: _398  and  _400
REMARK  162  A    between atoms: _400  and  _401
REMARK  163  A    between atoms: _400  and  _403
REMARK  164  A    between atoms: _403  and  _404
REMARK  165  A    between atoms: _407  and  _409
REMARK  166  A    between atoms: _409  and  _410
REMARK  167  A    between atoms: _409  and  _412
REMARK  168  A    between atoms: _412  and  _413
REMARK  169  A    between atoms: _413  and  _414
REMARK  170  A    between atoms: _414  and  _415
REMARK  171  A    between atoms: _415  and  _416
REMARK  172  A    between atoms: _420  and  _422
REMARK  173  A    between atoms: _422  and  _423
REMARK  174  A    between atoms: _422  and  _425
REMARK  175  A    between atoms: _425  and  _426
REMARK  176  A    between atoms: _426  and  _427
REMARK  177  A    between atoms: _429  and  _431
REMARK  178  A    between atoms: _431  and  _432
REMARK  179  A    between atoms: _431  and  _434
REMARK  180  A    between atoms: _434  and  _435
REMARK  181  A    between atoms: _438  and  _440
REMARK  182  A    between atoms: _440  and  _441
REMARK  183  A    between atoms: _443  and  _445
REMARK  184  A    between atoms: _445  and  _446
REMARK  185  A    between atoms: _448  and  _450
REMARK  186  A    between atoms: _450  and  _451
REMARK  187  A    between atoms: _450  and  _453
REMARK  188  A    between atoms: _453  and  _454
REMARK  189  A    between atoms: _457  and  _459
REMARK  190  A    between atoms: _459  and  _460
REMARK  191  A    between atoms: _462  and  _464
REMARK  192  A    between atoms: _464  and  _465
REMARK  193  A    between atoms: _467  and  _469
REMARK  194  A    between atoms: _469  and  _470
REMARK  195  A    between atoms: _469  and  _472
REMARK  196  A    between atoms: _472  and  _473
REMARK  197  A    between atoms: _479  and  _481
REMARK  198  A    between atoms: _481  and  _482
REMARK  199  A    between atoms: _481  and  _484
REMARK  200  A    between atoms: _487  and  _489
REMARK  201  A    between atoms: _489  and  _490
REMARK  202  A    between atoms: _489  and  _492
REMARK  203  A    between atoms: _495  and  _497
REMARK  204  A    between atoms: _497  and  _498
REMARK  205  A    between atoms: _497  and  _500
REMARK  206  A    between atoms: _500  and  _501
REMARK  207  A    between atoms: _504  and  _506
REMARK  208  A    between atoms: _506  and  _507
REMARK  209  A    between atoms: _506  and  _509
REMARK  210  A    between atoms: _509  and  _510
REMARK  211  A    between atoms: _514  and  _515
REMARK  212  A    between atoms: _520  and  _522
REMARK  213  A    between atoms: _522  and  _523
REMARK  214  A    between atoms: _522  and  _525
REMARK  215  A    between atoms: _528  and  _530
REMARK  216  A    between atoms: _530  and  _531
REMARK  217  A    between atoms: _530  and  _533
REMARK  218  A    between atoms: _533  and  _534
REMARK  219  A    between atoms: _539  and  _541
REMARK  220  A    between atoms: _541  and  _542
REMARK  221  A    between atoms: _541  and  _544
REMARK  222  A    between atoms: _544  and  _545
REMARK  223  A    between atoms: _548  and  _550
REMARK  224  A    between atoms: _550  and  _551
REMARK  225  A    between atoms: _550  and  _553
REMARK  226  A    between atoms: _553  and  _554
REMARK  227  A    between atoms: _557  and  _559
REMARK  228  A    between atoms: _559  and  _560
REMARK  229  A    between atoms: _562  and  _564
REMARK  230  A    between atoms: _564  and  _565
REMARK  231  A    between atoms: _564  and  _567
REMARK  232  A    between atoms: _567  and  _568
REMARK  233  A    between atoms: _568  and  _569
REMARK  234  A    between atoms: _569  and  _570
REMARK  235  A    between atoms: _579  and  _581
REMARK  236  A    between atoms: _581  and  _582
REMARK  237  A    between atoms: _581  and  _584
REMARK  238  A    between atoms: _584  and  _585
REMARK                            x       y       z     vdW  Elec       q    Type
REMARK                         _______ _______ _______ _____ _____    ______ ____
ROOT
ATOM      1  O   HOH     1      14.395  26.986  11.631  0.00  0.00    +0.000 OA
ENDROOT
TORSDOF 0
REMARK  Name = ../refined-set-2016/3nuj/3nuj_pocket.pdb
REMARK  238 active torsions:
REMARK  status: ('A' for Active; 'I' for Inactive)
REMARK    1  A    between atoms: _1  and  _3
REMARK    2  A    between atoms: _3  and  _4
REMARK    3  A    between atoms: _3  and  _6
REMARK    4  A    between atoms: _6  and  _7
REMARK    5  A    between atoms: _7  and  _8
REMARK    6  A    between atoms: _8  and  _9
REMARK    7  A    between atoms: _18  and  _20
REMARK    8  A    between atoms: _20  and  _21
REMARK    9  A    between atoms: _20  and  _23
REMARK   10  A    between atoms: _23  and  _24
REMARK   11  A    between atoms: _27  and  _29
REMARK   12  A    between atoms: _29  and  _30
REMARK   13  A    between atoms: _29  and  _32
REMARK   14  A    between atoms: _32  and  _33
REMARK   15  A    between atoms: _36  and  _38
REMARK   16  A    between atoms: _38  and  _39
REMARK   17  A    between atoms: _38  and  _41
REMARK   18  A    between atoms: _41  and  _42
REMARK   19  A    between atoms: _45  and  _47
REMARK   20  A    between atoms: _47  and  _48
REMARK   21  A    between atoms: _47  and  _50
REMARK   22  A    between atoms: _50  and  _51
REMARK   23  A    between atoms: _54  and  _56
REMARK   24  A    between atoms: _56  and  _57
REMARK   25  A    between atoms: _59  and  _61
REMARK   26  A    between atoms: _61  and  _62
REMARK   27  A    between atoms: _65  and  _67
REMARK   28  A    between atoms: _67  and  _68
REMARK   29  A    between atoms: _67  and  _70
REMARK   30  A    between atoms: _70  and  _71
REMARK   31  A    between atoms: _74  and  _76
REMARK   32  A    between atoms: _76  and  _77
REMARK   33  A    between atoms: _76  and  _79
REMARK   34  A    between atoms: _79  and  _80
REMARK   35  A    between atoms: _83  and  _85
REMARK   36  A    between atoms: _85  and  _86
REMARK   37  A    between atoms: _85  and  _88
REMARK   38  A    between atoms: _88  and  _89
REMARK   39  A    between atoms: _92  and  _94
REMARK   40  A    between atoms: _94  and  _95
REMARK   41  A    between atoms: _94  and  _97
REMARK   42  A    between atoms: _100  and  _102
REMARK   43  A    between atoms: _102  and  _103
REMARK   44  A    between atoms: _102  and  _105
REMARK   45  A    between atoms: _105  and  _106
REMARK   46  A    between atoms: _109  and  _111
REMARK   47  A    between atoms: _111  and  _112
REMARK   48  A    between atoms: _111  and  _114
REMARK   49  A    between atoms: _114  and  _115
REMARK   50  A    between atoms: _115  and  _116
REMARK   51  A    between atoms: _116  and  _117
REMARK   52  A    between atoms: _117  and  _118
REMARK   53  A    between atoms: _122  and  _124
REMARK   54  A    between atoms: _124  and  _125
REMARK   55  A    between atoms: _124  and  _127
REMARK   56  A    between atoms: _127  and  _128
REMARK   57  A    between atoms: _128  and  _129
REMARK   58  A    between atoms: _131  and  _133
REMARK   59  A    between atoms: _133  and  _134
REMARK   60  A    between atoms: _133  and  _136
REMARK   61  A    between atoms: _136  and  _137
REMARK   62  A    between atoms: _140  and  _142
REMARK   63  A    between atoms: _142  and  _143
REMARK   64  A    between atoms: _145  and  _147
REMARK   65  A    between atoms: _147  and  _148
REMARK   66  A    between atoms: _150  and  _152
REMARK   67  A    between atoms: _152  and  _153
REMARK   68  A    between atoms: _152  and  _155
REMARK   69  A    between atoms: _155  and  _156
REMARK   70  A    between atoms: _159  and  _161
REMARK   71  A    between atoms: _161  and  _162
REMARK   72  A    between atoms: _164  and  _166
REMARK   73  A    between atoms: _166  and  _167
REMARK   74  A    between atoms: _169  and  _171
REMARK   75  A    between atoms: _171  and  _172
REMARK   76  A    between atoms: _171  and  _174
REMARK   77  A    between atoms: _174  and  _175
REMARK   78  A    between atoms: _181  and  _183
REMARK   79  A    between atoms: _183  and  _184
REMARK   80  A    between atoms: _183  and  _186
REMARK   81  A    between atoms: _189  and  _191
REMARK   82  A    between atoms: _191  and  _192
REMARK   83  A    between atoms: _191  and  _194
REMARK   84  A    between atoms: _197  and  _199
REMARK   85  A    between atoms: _199  and  _200
REMARK   86  A    between atoms: _199  and  _202
REMARK   87  A    between atoms: _202  and  _203
REMARK   88  A    between atoms: _207  and  _208
REMARK   89  A    between atoms: _213  and  _215
REMARK   90  A    between atoms: _215  and  _216
REMARK   91  A    between atoms: _215  and  _218
REMARK   92  A    between atoms: _218  and  _219
REMARK   93  A    between atoms: _223  and  _224
REMARK   94  A    between atoms: _229  and  _231
REMARK   95  A    between atoms: _231  and  _232
REMARK   96  A    between atoms: _231  and  _234
REMARK   97  A    between atoms: _237  and  _239
REMARK   98  A    between atoms: _239  and  _240
REMARK   99  A    between atoms: _239  and  _242
REMARK  100  A    between atoms: _242  and  _243
REMARK  101  A    between atoms: _248  and  _250
REMARK  102  A    between atoms: _250  and  _251
REMARK  103  A    between atoms: _250  and  _253
REMARK  104  A    between atoms: _253  and  _254
REMARK  105  A    between atoms: _257  and  _259
REMARK  106  A    between atoms: _259  and  _260
REMARK  107  A    between atoms: _259  and  _262
REMARK  108  A    between atoms: _262  and  _263
REMARK  109  A    between atoms: _266  and  _268
REMARK  110  A    between atoms: _268  and  _269
REMARK  111  A    between atoms: _271  and  _273
REMARK  112  A    between atoms: _273  and  _274
REMARK  113  A    between atoms: _273  and  _276
REMARK  114  A    between atoms: _277  and  _278
REMARK  115  A    between atoms: _278  and  _279
REMARK  116  A    between atoms: _288  and  _290
REMARK  117  A    between atoms: _290  and  _291
REMARK  118  A    between atoms: _290  and  _293
REMARK  119  A    between atoms: _293  and  _294
REMARK  120  A    between atoms: _299  and  _301
REMARK  121  A    between atoms: _301  and  _302
REMARK  122  A    between atoms: _301  and  _304
REMARK  123  A    between atoms: _304  and  _305
REMARK  124  A    between atoms: _305  and  _306
REMARK  125  A    between atoms: _306  and  _307
REMARK  126  A    between atoms: _316  and  _318
REMARK  127  A    between atoms: _318  and  _319
REMARK  128  A    between atoms: _318  and  _321
REMARK  129  A    between atoms: _321  and  _322
REMARK  130  A    between atoms: _325  and  _327
REMARK  131  A    between atoms: _327  and  _328
REMARK  132  A    between atoms: _327  and  _330
REMARK  133  A    between atoms: _330  and  _331
REMARK  134  A    between atoms: _334  and  _336
REMARK  135  A    between atoms: _336  and  _337
REMARK  136  A    between atoms: _336  and  _339
REMARK  137  A    between atoms: _339  and  _340
REMARK  138  A    between atoms: _343  and  _345
REMARK  139  A    between atoms: _345  and  _346
REMARK  140  A    between atoms: _345  and  _348
REMARK  141  A    between atoms: _348  and  _349
REMARK  142  A    between atoms: _352  and  _354
REMARK  143  A    between atoms: _354  and  _355
REMARK  144  A    between atoms: _357  and  _359
REMARK  145  A    between atoms: _359  and  _360
REMARK  146  A    between atoms: _363  and  _365
REMARK  147  A    between atoms: _365  and  _366
REMARK  148  A    between atoms: _365  and  _368
REMARK  149  A    between atoms: _368  and  _369
REMARK  150  A    between atoms: _372  and  _374
REMARK  151  A    between atoms: _374  and  _375
REMARK  152  A    between atoms: _374  and  _377
REMARK  153  A    between atoms: _377  and  _378
REMARK  154  A    between atoms: _381  and  _383
REMARK  155  A    between atoms: _383  and  _384
REMARK  156  A    between atoms: _383  and  _386
REMARK  157  A    between atoms: _386  and  _387
REMARK  158  A    between atoms: _390  and  _392
REMARK  159  A    between atoms: _392  and  _393
REMARK  160  A    between atoms: _392  and  _395
REMARK  161  A    between atoms: _398  and  _400
REMARK  162  A    between atoms: _400  and  _401
REMARK  163  A    between atoms: _400  and  _403
REMARK  164  A    between atoms: _403  and  _404
REMARK  165  A    between atoms: _407  and  _409
REMARK  166  A    between atoms: _409  and  _410
REMARK  167  A    between atoms: _409  and  _412
REMARK  168  A    between atoms: _412  and  _413
REMARK  169  A    between atoms: _413  and  _414
REMARK  170  A    between atoms: _414  and  _415
REMARK  171  A    between atoms: _415  and  _416
REMARK  172  A    between atoms: _420  and  _422
REMARK  173  A    between atoms: _422  and  _423
REMARK  174  A    between atoms: _422  and  _425
REMARK  175  A    between atoms: _425  and  _426
REMARK  176  A    between atoms: _426  and  _427
REMARK  177  A    between atoms: _429  and  _431
REMARK  178  A    between atoms: _431  and  _432
REMARK  179  A    between atoms: _431  and  _434
REMARK  180  A    between atoms: _434  and  _435
REMARK  181  A    between atoms: _438  and  _440
REMARK  182  A    between atoms: _440  and  _441
REMARK  183  A    between atoms: _443  and  _445
REMARK  184  A    between atoms: _445  and  _446
REMARK  185  A    between atoms: _448  and  _450
REMARK  186  A    between atoms: _450  and  _451
REMARK  187  A    between atoms: _450  and  _453
REMARK  188  A    between atoms: _453  and  _454
REMARK  189  A    between atoms: _457  and  _459
REMARK  190  A    between atoms: _459  and  _460
REMARK  191  A    between atoms: _462  and  _464
REMARK  192  A    between atoms: _464  and  _465
REMARK  193  A    between atoms: _467  and  _469
REMARK  194  A    between atoms: _469  and  _470
REMARK  195  A    between atoms: _469  and  _472
REMARK  196  A    between atoms: _472  and  _473
REMARK  197  A    between atoms: _479  and  _481
REMARK  198  A    between atoms: _481  and  _482
REMARK  199  A    between atoms: _481  and  _484
REMARK  200  A    between atoms: _487  and  _489
REMARK  201  A    between atoms: _489  and  _490
REMARK  202  A    between atoms: _489  and  _492
REMARK  203  A    between atoms: _495  and  _497
REMARK  204  A    between atoms: _497  and  _498
REMARK  205  A    between atoms: _497  and  _500
REMARK  206  A    between atoms: _500  and  _501
REMARK  207  A    between atoms: _504  and  _506
REMARK  208  A    between atoms: _506  and  _507
REMARK  209  A    between atoms: _506  and  _509
REMARK  210  A    between atoms: _509  and  _510
REMARK  211  A    between atoms: _514  and  _515
REMARK  212  A    between atoms: _520  and  _522
REMARK  213  A    between atoms: _522  and  _523
REMARK  214  A    between atoms: _522  and  _525
REMARK  215  A    between atoms: _528  and  _530
REMARK  216  A    between atoms: _530  and  _531
REMARK  217  A    between atoms: _530  and  _533
REMARK  218  A    between atoms: _533  and  _534
REMARK  219  A    between atoms: _539  and  _541
REMARK  220  A    between atoms: _541  and  _542
REMARK  221  A    between atoms: _541  and  _544
REMARK  222  A    between atoms: _544  and  _545
REMARK  223  A    between atoms: _548  and  _550
REMARK  224  A    between atoms: _550  and  _551
REMARK  225  A    between atoms: _550  and  _553
REMARK  226  A    between atoms: _553  and  _554
REMARK  227  A    between atoms: _557  and  _559
REMARK  228  A    between atoms: _559  and  _560
REMARK  229  A    between atoms: _562  and  _564
REMARK  230  A    between atoms: _564  and  _565
REMARK  231  A    between atoms: _564  and  _567
REMARK  232  A    between atoms: _567  and  _568
REMARK  233  A    between atoms: _568  and  _569
REMARK  234  A    between atoms: _569  and  _570
REMARK  235  A    between atoms: _579  and  _581
REMARK  236  A    between atoms: _581  and  _582
REMARK  237  A    between atoms: _581  and  _584
REMARK  238  A    between atoms: _584  and  _585
REMARK                            x       y       z     vdW  Elec       q    Type
REMARK                         _______ _______ _______ _____ _____    ______ ____
ROOT
ATOM      1  O   HOH     1      18.921  22.845  17.315  0.00  0.00    +0.000 OA
ENDROOT
TORSDOF 0
REMARK  Name = ../refined-set-2016/3nuj/3nuj_pocket.pdb
REMARK  238 active torsions:
REMARK  status: ('A' for Active; 'I' for Inactive)
REMARK    1  A    between atoms: _1  and  _3
REMARK    2  A    between atoms: _3  and  _4
REMARK    3  A    between atoms: _3  and  _6
REMARK    4  A    between atoms: _6  and  _7
REMARK    5  A    between atoms: _7  and  _8
REMARK    6  A    between atoms: _8  and  _9
REMARK    7  A    between atoms: _18  and  _20
REMARK    8  A    between atoms: _20  and  _21
REMARK    9  A    between atoms: _20  and  _23
REMARK   10  A    between atoms: _23  and  _24
REMARK   11  A    between atoms: _27  and  _29
REMARK   12  A    between atoms: _29  and  _30
REMARK   13  A    between atoms: _29  and  _32
REMARK   14  A    between atoms: _32  and  _33
REMARK   15  A    between atoms: _36  and  _38
REMARK   16  A    between atoms: _38  and  _39
REMARK   17  A    between atoms: _38  and  _41
REMARK   18  A    between atoms: _41  and  _42
REMARK   19  A    between atoms: _45  and  _47
REMARK   20  A    between atoms: _47  and  _48
REMARK   21  A    between atoms: _47  and  _50
REMARK   22  A    between atoms: _50  and  _51
REMARK   23  A    between atoms: _54  and  _56
REMARK   24  A    between atoms: _56  and  _57
REMARK   25  A    between atoms: _59  and  _61
REMARK   26  A    between atoms: _61  and  _62
REMARK   27  A    between atoms: _65  and  _67
REMARK   28  A    between atoms: _67  and  _68
REMARK   29  A    between atoms: _67  and  _70
REMARK   30  A    between atoms: _70  and  _71
REMARK   31  A    between atoms: _74  and  _76
REMARK   32  A    between atoms: _76  and  _77
REMARK   33  A    between atoms: _76  and  _79
REMARK   34  A    between atoms: _79  and  _80
REMARK   35  A    between atoms: _83  and  _85
REMARK   36  A    between atoms: _85  and  _86
REMARK   37  A    between atoms: _85  and  _88
REMARK   38  A    between atoms: _88  and  _89
REMARK   39  A    between atoms: _92  and  _94
REMARK   40  A    between atoms: _94  and  _95
REMARK   41  A    between atoms: _94  and  _97
REMARK   42  A    between atoms: _100  and  _102
REMARK   43  A    between atoms: _102  and  _103
REMARK   44  A    between atoms: _102  and  _105
REMARK   45  A    between atoms: _105  and  _106
REMARK   46  A    between atoms: _109  and  _111
REMARK   47  A    between atoms: _111  and  _112
REMARK   48  A    between atoms: _111  and  _114
REMARK   49  A    between atoms: _114  and  _115
REMARK   50  A    between atoms: _115  and  _116
REMARK   51  A    between atoms: _116  and  _117
REMARK   52  A    between atoms: _117  and  _118
REMARK   53  A    between atoms: _122  and  _124
REMARK   54  A    between atoms: _124  and  _125
REMARK   55  A    between atoms: _124  and  _127
REMARK   56  A    between atoms: _127  and  _128
REMARK   57  A    between atoms: _128  and  _129
REMARK   58  A    between atoms: _131  and  _133
REMARK   59  A    between atoms: _133  and  _134
REMARK   60  A    between atoms: _133  and  _136
REMARK   61  A    between atoms: _136  and  _137
REMARK   62  A    between atoms: _140  and  _142
REMARK   63  A    between atoms: _142  and  _143
REMARK   64  A    between atoms: _145  and  _147
REMARK   65  A    between atoms: _147  and  _148
REMARK   66  A    between atoms: _150  and  _152
REMARK   67  A    between atoms: _152  and  _153
REMARK   68  A    between atoms: _152  and  _155
REMARK   69  A    between atoms: _155  and  _156
REMARK   70  A    between atoms: _159  and  _161
REMARK   71  A    between atoms: _161  and  _162
REMARK   72  A    between atoms: _164  and  _166
REMARK   73  A    between atoms: _166  and  _167
REMARK   74  A    between atoms: _169  and  _171
REMARK   75  A    between atoms: _171  and  _172
REMARK   76  A    between atoms: _171  and  _174
REMARK   77  A    between atoms: _174  and  _175
REMARK   78  A    between atoms: _181  and  _183
REMARK   79  A    between atoms: _183  and  _184
REMARK   80  A    between atoms: _183  and  _186
REMARK   81  A    between atoms: _189  and  _191
REMARK   82  A    between atoms: _191  and  _192
REMARK   83  A    between atoms: _191  and  _194
REMARK   84  A    between atoms: _197  and  _199
REMARK   85  A    between atoms: _199  and  _200
REMARK   86  A    between atoms: _199  and  _202
REMARK   87  A    between atoms: _202  and  _203
REMARK   88  A    between atoms: _207  and  _208
REMARK   89  A    between atoms: _213  and  _215
REMARK   90  A    between atoms: _215  and  _216
REMARK   91  A    between atoms: _215  and  _218
REMARK   92  A    between atoms: _218  and  _219
REMARK   93  A    between atoms: _223  and  _224
REMARK   94  A    between atoms: _229  and  _231
REMARK   95  A    between atoms: _231  and  _232
REMARK   96  A    between atoms: _231  and  _234
REMARK   97  A    between atoms: _237  and  _239
REMARK   98  A    between atoms: _239  and  _240
REMARK   99  A    between atoms: _239  and  _242
REMARK  100  A    between atoms: _242  and  _243
REMARK  101  A    between atoms: _248  and  _250
REMARK  102  A    between atoms: _250  and  _251
REMARK  103  A    between atoms: _250  and  _253
REMARK  104  A    between atoms: _253  and  _254
REMARK  105  A    between atoms: _257  and  _259
REMARK  106  A    between atoms: _259  and  _260
REMARK  107  A    between atoms: _259  and  _262
REMARK  108  A    between atoms: _262  and  _263
REMARK  109  A    between atoms: _266  and  _268
REMARK  110  A    between atoms: _268  and  _269
REMARK  111  A    between atoms: _271  and  _273
REMARK  112  A    between atoms: _273  and  _274
REMARK  113  A    between atoms: _273  and  _276
REMARK  114  A    between atoms: _277  and  _278
REMARK  115  A    between atoms: _278  and  _279
REMARK  116  A    between atoms: _288  and  _290
REMARK  117  A    between atoms: _290  and  _291
REMARK  118  A    between atoms: _290  and  _293
REMARK  119  A    between atoms: _293  and  _294
REMARK  120  A    between atoms: _299  and  _301
REMARK  121  A    between atoms: _301  and  _302
REMARK  122  A    between atoms: _301  and  _304
REMARK  123  A    between atoms: _304  and  _305
REMARK  124  A    between atoms: _305  and  _306
REMARK  125  A    between atoms: _306  and  _307
REMARK  126  A    between atoms: _316  and  _318
REMARK  127  A    between atoms: _318  and  _319
REMARK  128  A    between atoms: _318  and  _321
REMARK  129  A    between atoms: _321  and  _322
REMARK  130  A    between atoms: _325  and  _327
REMARK  131  A    between atoms: _327  and  _328
REMARK  132  A    between atoms: _327  and  _330
REMARK  133  A    between atoms: _330  and  _331
REMARK  134  A    between atoms: _334  and  _336
REMARK  135  A    between atoms: _336  and  _337
REMARK  136  A    between atoms: _336  and  _339
REMARK  137  A    between atoms: _339  and  _340
REMARK  138  A    between atoms: _343  and  _345
REMARK  139  A    between atoms: _345  and  _346
REMARK  140  A    between atoms: _345  and  _348
REMARK  141  A    between atoms: _348  and  _349
REMARK  142  A    between atoms: _352  and  _354
REMARK  143  A    between atoms: _354  and  _355
REMARK  144  A    between atoms: _357  and  _359
REMARK  145  A    between atoms: _359  and  _360
REMARK  146  A    between atoms: _363  and  _365
REMARK  147  A    between atoms: _365  and  _366
REMARK  148  A    between atoms: _365  and  _368
REMARK  149  A    between atoms: _368  and  _369
REMARK  150  A    between atoms: _372  and  _374
REMARK  151  A    between atoms: _374  and  _375
REMARK  152  A    between atoms: _374  and  _377
REMARK  153  A    between atoms: _377  and  _378
REMARK  154  A    between atoms: _381  and  _383
REMARK  155  A    between atoms: _383  and  _384
REMARK  156  A    between atoms: _383  and  _386
REMARK  157  A    between atoms: _386  and  _387
REMARK  158  A    between atoms: _390  and  _392
REMARK  159  A    between atoms: _392  and  _393
REMARK  160  A    between atoms: _392  and  _395
REMARK  161  A    between atoms: _398  and  _400
REMARK  162  A    between atoms: _400  and  _401
REMARK  163  A    between atoms: _400  and  _403
REMARK  164  A    between atoms: _403  and  _404
REMARK  165  A    between atoms: _407  and  _409
REMARK  166  A    between atoms: _409  and  _410
REMARK  167  A    between atoms: _409  and  _412
REMARK  168  A    between atoms: _412  and  _413
REMARK  169  A    between atoms: _413  and  _414
REMARK  170  A    between atoms: _414  and  _415
REMARK  171  A    between atoms: _415  and  _416
REMARK  172  A    between atoms: _420  and  _422
REMARK  173  A    between atoms: _422  and  _423
REMARK  174  A    between atoms: _422  and  _425
REMARK  175  A    between atoms: _425  and  _426
REMARK  176  A    between atoms: _426  and  _427
REMARK  177  A    between atoms: _429  and  _431
REMARK  178  A    between atoms: _431  and  _432
REMARK  179  A    between atoms: _431  and  _434
REMARK  180  A    between atoms: _434  and  _435
REMARK  181  A    between atoms: _438  and  _440
REMARK  182  A    between atoms: _440  and  _441
REMARK  183  A    between atoms: _443  and  _445
REMARK  184  A    between atoms: _445  and  _446
REMARK  185  A    between atoms: _448  and  _450
REMARK  186  A    between atoms: _450  and  _451
REMARK  187  A    between atoms: _450  and  _453
REMARK  188  A    between atoms: _453  and  _454
REMARK  189  A    between atoms: _457  and  _459
REMARK  190  A    between atoms: _459  and  _460
REMARK  191  A    between atoms: _462  and  _464
REMARK  192  A    between atoms: _464  and  _465
REMARK  193  A    between atoms: _467  and  _469
REMARK  194  A    between atoms: _469  and  _470
REMARK  195  A    between atoms: _469  and  _472
REMARK  196  A    between atoms: _472  and  _473
REMARK  197  A    between atoms: _479  and  _481
REMARK  198  A    between atoms: _481  and  _482
REMARK  199  A    between atoms: _481  and  _484
REMARK  200  A    between atoms: _487  and  _489
REMARK  201  A    between atoms: _489  and  _490
REMARK  202  A    between atoms: _489  and  _492
REMARK  203  A    between atoms: _495  and  _497
REMARK  204  A    between atoms: _497  and  _498
REMARK  205  A    between atoms: _497  and  _500
REMARK  206  A    between atoms: _500  and  _501
REMARK  207  A    between atoms: _504  and  _506
REMARK  208  A    between atoms: _506  and  _507
REMARK  209  A    between atoms: _506  and  _509
REMARK  210  A    between atoms: _509  and  _510
REMARK  211  A    between atoms: _514  and  _515
REMARK  212  A    between atoms: _520  and  _522
REMARK  213  A    between atoms: _522  and  _523
REMARK  214  A    between atoms: _522  and  _525
REMARK  215  A    between atoms: _528  and  _530
REMARK  216  A    between atoms: _530  and  _531
REMARK  217  A    between atoms: _530  and  _533
REMARK  218  A    between atoms: _533  and  _534
REMARK  219  A    between atoms: _539  and  _541
REMARK  220  A    between atoms: _541  and  _542
REMARK  221  A    between atoms: _541  and  _544
REMARK  222  A    between atoms: _544  and  _545
REMARK  223  A    between atoms: _548  and  _550
REMARK  224  A    between atoms: _550  and  _551
REMARK  225  A    between atoms: _550  and  _553
REMARK  226  A    between atoms: _553  and  _554
REMARK  227  A    between atoms: _557  and  _559
REMARK  228  A    between atoms: _559  and  _560
REMARK  229  A    between atoms: _562  and  _564
REMARK  230  A    between atoms: _564  and  _565
REMARK  231  A    between atoms: _564  and  _567
REMARK  232  A    between atoms: _567  and  _568
REMARK  233  A    between atoms: _568  and  _569
REMARK  234  A    between atoms: _569  and  _570
REMARK  235  A    between atoms: _579  and  _581
REMARK  236  A    between atoms: _581  and  _582
REMARK  237  A    between atoms: _581  and  _584
REMARK  238  A    between atoms: _584  and  _585
REMARK                            x       y       z     vdW  Elec       q    Type
REMARK                         _______ _______ _______ _____ _____    ______ ____
ROOT
ATOM      1  O   HOH     1      24.587  23.950  22.431  0.00  0.00    +0.000 OA
ENDROOT
TORSDOF 0
REMARK  Name = ../refined-set-2016/3nuj/3nuj_pocket.pdb
REMARK  238 active torsions:
REMARK  status: ('A' for Active; 'I' for Inactive)
REMARK    1  A    between atoms: _1  and  _3
REMARK    2  A    between atoms: _3  and  _4
REMARK    3  A    between atoms: _3  and  _6
REMARK    4  A    between atoms: _6  and  _7
REMARK    5  A    between atoms: _7  and  _8
REMARK    6  A    between atoms: _8  and  _9
REMARK    7  A    between atoms: _18  and  _20
REMARK    8  A    between atoms: _20  and  _21
REMARK    9  A    between atoms: _20  and  _23
REMARK   10  A    between atoms: _23  and  _24
REMARK   11  A    between atoms: _27  and  _29
REMARK   12  A    between atoms: _29  and  _30
REMARK   13  A    between atoms: _29  and  _32
REMARK   14  A    between atoms: _32  and  _33
REMARK   15  A    between atoms: _36  and  _38
REMARK   16  A    between atoms: _38  and  _39
REMARK   17  A    between atoms: _38  and  _41
REMARK   18  A    between atoms: _41  and  _42
REMARK   19  A    between atoms: _45  and  _47
REMARK   20  A    between atoms: _47  and  _48
REMARK   21  A    between atoms: _47  and  _50
REMARK   22  A    between atoms: _50  and  _51
REMARK   23  A    between atoms: _54  and  _56
REMARK   24  A    between atoms: _56  and  _57
REMARK   25  A    between atoms: _59  and  _61
REMARK   26  A    between atoms: _61  and  _62
REMARK   27  A    between atoms: _65  and  _67
REMARK   28  A    between atoms: _67  and  _68
REMARK   29  A    between atoms: _67  and  _70
REMARK   30  A    between atoms: _70  and  _71
REMARK   31  A    between atoms: _74  and  _76
REMARK   32  A    between atoms: _76  and  _77
REMARK   33  A    between atoms: _76  and  _79
REMARK   34  A    between atoms: _79  and  _80
REMARK   35  A    between atoms: _83  and  _85
REMARK   36  A    between atoms: _85  and  _86
REMARK   37  A    between atoms: _85  and  _88
REMARK   38  A    between atoms: _88  and  _89
REMARK   39  A    between atoms: _92  and  _94
REMARK   40  A    between atoms: _94  and  _95
REMARK   41  A    between atoms: _94  and  _97
REMARK   42  A    between atoms: _100  and  _102
REMARK   43  A    between atoms: _102  and  _103
REMARK   44  A    between atoms: _102  and  _105
REMARK   45  A    between atoms: _105  and  _106
REMARK   46  A    between atoms: _109  and  _111
REMARK   47  A    between atoms: _111  and  _112
REMARK   48  A    between atoms: _111  and  _114
REMARK   49  A    between atoms: _114  and  _115
REMARK   50  A    between atoms: _115  and  _116
REMARK   51  A    between atoms: _116  and  _117
REMARK   52  A    between atoms: _117  and  _118
REMARK   53  A    between atoms: _122  and  _124
REMARK   54  A    between atoms: _124  and  _125
REMARK   55  A    between atoms: _124  and  _127
REMARK   56  A    between atoms: _127  and  _128
REMARK   57  A    between atoms: _128  and  _129
REMARK   58  A    between atoms: _131  and  _133
REMARK   59  A    between atoms: _133  and  _134
REMARK   60  A    between atoms: _133  and  _136
REMARK   61  A    between atoms: _136  and  _137
REMARK   62  A    between atoms: _140  and  _142
REMARK   63  A    between atoms: _142  and  _143
REMARK   64  A    between atoms: _145  and  _147
REMARK   65  A    between atoms: _147  and  _148
REMARK   66  A    between atoms: _150  and  _152
REMARK   67  A    between atoms: _152  and  _153
REMARK   68  A    between atoms: _152  and  _155
REMARK   69  A    between atoms: _155  and  _156
REMARK   70  A    between atoms: _159  and  _161
REMARK   71  A    between atoms: _161  and  _162
REMARK   72  A    between atoms: _164  and  _166
REMARK   73  A    between atoms: _166  and  _167
REMARK   74  A    between atoms: _169  and  _171
REMARK   75  A    between atoms: _171  and  _172
REMARK   76  A    between atoms: _171  and  _174
REMARK   77  A    between atoms: _174  and  _175
REMARK   78  A    between atoms: _181  and  _183
REMARK   79  A    between atoms: _183  and  _184
REMARK   80  A    between atoms: _183  and  _186
REMARK   81  A    between atoms: _189  and  _191
REMARK   82  A    between atoms: _191  and  _192
REMARK   83  A    between atoms: _191  and  _194
REMARK   84  A    between atoms: _197  and  _199
REMARK   85  A    between atoms: _199  and  _200
REMARK   86  A    between atoms: _199  and  _202
REMARK   87  A    between atoms: _202  and  _203
REMARK   88  A    between atoms: _207  and  _208
REMARK   89  A    between atoms: _213  and  _215
REMARK   90  A    between atoms: _215  and  _216
REMARK   91  A    between atoms: _215  and  _218
REMARK   92  A    between atoms: _218  and  _219
REMARK   93  A    between atoms: _223  and  _224
REMARK   94  A    between atoms: _229  and  _231
REMARK   95  A    between atoms: _231  and  _232
REMARK   96  A    between atoms: _231  and  _234
REMARK   97  A    between atoms: _237  and  _239
REMARK   98  A    between atoms: _239  and  _240
REMARK   99  A    between atoms: _239  and  _242
REMARK  100  A    between atoms: _242  and  _243
REMARK  101  A    between atoms: _248  and  _250
REMARK  102  A    between atoms: _250  and  _251
REMARK  103  A    between atoms: _250  and  _253
REMARK  104  A    between atoms: _253  and  _254
REMARK  105  A    between atoms: _257  and  _259
REMARK  106  A    between atoms: _259  and  _260
REMARK  107  A    between atoms: _259  and  _262
REMARK  108  A    between atoms: _262  and  _263
REMARK  109  A    between atoms: _266  and  _268
REMARK  110  A    between atoms: _268  and  _269
REMARK  111  A    between atoms: _271  and  _273
REMARK  112  A    between atoms: _273  and  _274
REMARK  113  A    between atoms: _273  and  _276
REMARK  114  A    between atoms: _277  and  _278
REMARK  115  A    between atoms: _278  and  _279
REMARK  116  A    between atoms: _288  and  _290
REMARK  117  A    between atoms: _290  and  _291
REMARK  118  A    between atoms: _290  and  _293
REMARK  119  A    between atoms: _293  and  _294
REMARK  120  A    between atoms: _299  and  _301
REMARK  121  A    between atoms: _301  and  _302
REMARK  122  A    between atoms: _301  and  _304
REMARK  123  A    between atoms: _304  and  _305
REMARK  124  A    between atoms: _305  and  _306
REMARK  125  A    between atoms: _306  and  _307
REMARK  126  A    between atoms: _316  and  _318
REMARK  127  A    between atoms: _318  and  _319
REMARK  128  A    between atoms: _318  and  _321
REMARK  129  A    between atoms: _321  and  _322
REMARK  130  A    between atoms: _325  and  _327
REMARK  131  A    between atoms: _327  and  _328
REMARK  132  A    between atoms: _327  and  _330
REMARK  133  A    between atoms: _330  and  _331
REMARK  134  A    between atoms: _334  and  _336
REMARK  135  A    between atoms: _336  and  _337
REMARK  136  A    between atoms: _336  and  _339
REMARK  137  A    between atoms: _339  and  _340
REMARK  138  A    between atoms: _343  and  _345
REMARK  139  A    between atoms: _345  and  _346
REMARK  140  A    between atoms: _345  and  _348
REMARK  141  A    between atoms: _348  and  _349
REMARK  142  A    between atoms: _352  and  _354
REMARK  143  A    between atoms: _354  and  _355
REMARK  144  A    between atoms: _357  and  _359
REMARK  145  A    between atoms: _359  and  _360
REMARK  146  A    between atoms: _363  and  _365
REMARK  147  A    between atoms: _365  and  _366
REMARK  148  A    between atoms: _365  and  _368
REMARK  149  A    between atoms: _368  and  _369
REMARK  150  A    between atoms: _372  and  _374
REMARK  151  A    between atoms: _374  and  _375
REMARK  152  A    between atoms: _374  and  _377
REMARK  153  A    between atoms: _377  and  _378
REMARK  154  A    between atoms: _381  and  _383
REMARK  155  A    between atoms: _383  and  _384
REMARK  156  A    between atoms: _383  and  _386
REMARK  157  A    between atoms: _386  and  _387
REMARK  158  A    between atoms: _390  and  _392
REMARK  159  A    between atoms: _392  and  _393
REMARK  160  A    between atoms: _392  and  _395
REMARK  161  A    between atoms: _398  and  _400
REMARK  162  A    between atoms: _400  and  _401
REMARK  163  A    between atoms: _400  and  _403
REMARK  164  A    between atoms: _403  and  _404
REMARK  165  A    between atoms: _407  and  _409
REMARK  166  A    between atoms: _409  and  _410
REMARK  167  A    between atoms: _409  and  _412
REMARK  168  A    between atoms: _412  and  _413
REMARK  169  A    between atoms: _413  and  _414
REMARK  170  A    between atoms: _414  and  _415
REMARK  171  A    between atoms: _415  and  _416
REMARK  172  A    between atoms: _420  and  _422
REMARK  173  A    between atoms: _422  and  _423
REMARK  174  A    between atoms: _422  and  _425
REMARK  175  A    between atoms: _425  and  _426
REMARK  176  A    between atoms: _426  and  _427
REMARK  177  A    between atoms: _429  and  _431
REMARK  178  A    between atoms: _431  and  _432
REMARK  179  A    between atoms: _431  and  _434
REMARK  180  A    between atoms: _434  and  _435
REMARK  181  A    between atoms: _438  and  _440
REMARK  182  A    between atoms: _440  and  _441
REMARK  183  A    between atoms: _443  and  _445
REMARK  184  A    between atoms: _445  and  _446
REMARK  185  A    between atoms: _448  and  _450
REMARK  186  A    between atoms: _450  and  _451
REMARK  187  A    between atoms: _450  and  _453
REMARK  188  A    between atoms: _453  and  _454
REMARK  189  A    between atoms: _457  and  _459
REMARK  190  A    between atoms: _459  and  _460
REMARK  191  A    between atoms: _462  and  _464
REMARK  192  A    between atoms: _464  and  _465
REMARK  193  A    between atoms: _467  and  _469
REMARK  194  A    between atoms: _469  and  _470
REMARK  195  A    between atoms: _469  and  _472
REMARK  196  A    between atoms: _472  and  _473
REMARK  197  A    between atoms: _479  and  _481
REMARK  198  A    between atoms: _481  and  _482
REMARK  199  A    between atoms: _481  and  _484
REMARK  200  A    between atoms: _487  and  _489
REMARK  201  A    between atoms: _489  and  _490
REMARK  202  A    between atoms: _489  and  _492
REMARK  203  A    between atoms: _495  and  _497
REMARK  204  A    between atoms: _497  and  _498
REMARK  205  A    between atoms: _497  and  _500
REMARK  206  A    between atoms: _500  and  _501
REMARK  207  A    between atoms: _504  and  _506
REMARK  208  A    between atoms: _506  and  _507
REMARK  209  A    between atoms: _506  and  _509
REMARK  210  A    between atoms: _509  and  _510
REMARK  211  A    between atoms: _514  and  _515
REMARK  212  A    between atoms: _520  and  _522
REMARK  213  A    between atoms: _522  and  _523
REMARK  214  A    between atoms: _522  and  _525
REMARK  215  A    between atoms: _528  and  _530
REMARK  216  A    between atoms: _530  and  _531
REMARK  217  A    between atoms: _530  and  _533
REMARK  218  A    between atoms: _533  and  _534
REMARK  219  A    between atoms: _539  and  _541
REMARK  220  A    between atoms: _541  and  _542
REMARK  221  A    between atoms: _541  and  _544
REMARK  222  A    between atoms: _544  and  _545
REMARK  223  A    between atoms: _548  and  _550
REMARK  224  A    between atoms: _550  and  _551
REMARK  225  A    between atoms: _550  and  _553
REMARK  226  A    between atoms: _553  and  _554
REMARK  227  A    between atoms: _557  and  _559
REMARK  228  A    between atoms: _559  and  _560
REMARK  229  A    between atoms: _562  and  _564
REMARK  230  A    between atoms: _564  and  _565
REMARK  231  A    between atoms: _564  and  _567
REMARK  232  A    between atoms: _567  and  _568
REMARK  233  A    between atoms: _568  and  _569
REMARK  234  A    between atoms: _569  and  _570
REMARK  235  A    between atoms: _579  and  _581
REMARK  236  A    between atoms: _581  and  _582
REMARK  237  A    between atoms: _581  and  _584
REMARK  238  A    between atoms: _584  and  _585
REMARK                            x       y       z     vdW  Elec       q    Type
REMARK                         _______ _______ _______ _____ _____    ______ ____
ROOT
ATOM      1  O   HOH     1      18.577  27.750  16.969  0.00  0.00    +0.000 OA
ENDROOT
TORSDOF 0
REMARK  Name = ../refined-set-2016/3nuj/3nuj_pocket.pdb
REMARK  238 active torsions:
REMARK  status: ('A' for Active; 'I' for Inactive)
REMARK    1  A    between atoms: _1  and  _3
REMARK    2  A    between atoms: _3  and  _4
REMARK    3  A    between atoms: _3  and  _6
REMARK    4  A    between atoms: _6  and  _7
REMARK    5  A    between atoms: _7  and  _8
REMARK    6  A    between atoms: _8  and  _9
REMARK    7  A    between atoms: _18  and  _20
REMARK    8  A    between atoms: _20  and  _21
REMARK    9  A    between atoms: _20  and  _23
REMARK   10  A    between atoms: _23  and  _24
REMARK   11  A    between atoms: _27  and  _29
REMARK   12  A    between atoms: _29  and  _30
REMARK   13  A    between atoms: _29  and  _32
REMARK   14  A    between atoms: _32  and  _33
REMARK   15  A    between atoms: _36  and  _38
REMARK   16  A    between atoms: _38  and  _39
REMARK   17  A    between atoms: _38  and  _41
REMARK   18  A    between atoms: _41  and  _42
REMARK   19  A    between atoms: _45  and  _47
REMARK   20  A    between atoms: _47  and  _48
REMARK   21  A    between atoms: _47  and  _50
REMARK   22  A    between atoms: _50  and  _51
REMARK   23  A    between atoms: _54  and  _56
REMARK   24  A    between atoms: _56  and  _57
REMARK   25  A    between atoms: _59  and  _61
REMARK   26  A    between atoms: _61  and  _62
REMARK   27  A    between atoms: _65  and  _67
REMARK   28  A    between atoms: _67  and  _68
REMARK   29  A    between atoms: _67  and  _70
REMARK   30  A    between atoms: _70  and  _71
REMARK   31  A    between atoms: _74  and  _76
REMARK   32  A    between atoms: _76  and  _77
REMARK   33  A    between atoms: _76  and  _79
REMARK   34  A    between atoms: _79  and  _80
REMARK   35  A    between atoms: _83  and  _85
REMARK   36  A    between atoms: _85  and  _86
REMARK   37  A    between atoms: _85  and  _88
REMARK   38  A    between atoms: _88  and  _89
REMARK   39  A    between atoms: _92  and  _94
REMARK   40  A    between atoms: _94  and  _95
REMARK   41  A    between atoms: _94  and  _97
REMARK   42  A    between atoms: _100  and  _102
REMARK   43  A    between atoms: _102  and  _103
REMARK   44  A    between atoms: _102  and  _105
REMARK   45  A    between atoms: _105  and  _106
REMARK   46  A    between atoms: _109  and  _111
REMARK   47  A    between atoms: _111  and  _112
REMARK   48  A    between atoms: _111  and  _114
REMARK   49  A    between atoms: _114  and  _115
REMARK   50  A    between atoms: _115  and  _116
REMARK   51  A    between atoms: _116  and  _117
REMARK   52  A    between atoms: _117  and  _118
REMARK   53  A    between atoms: _122  and  _124
REMARK   54  A    between atoms: _124  and  _125
REMARK   55  A    between atoms: _124  and  _127
REMARK   56  A    between atoms: _127  and  _128
REMARK   57  A    between atoms: _128  and  _129
REMARK   58  A    between atoms: _131  and  _133
REMARK   59  A    between atoms: _133  and  _134
REMARK   60  A    between atoms: _133  and  _136
REMARK   61  A    between atoms: _136  and  _137
REMARK   62  A    between atoms: _140  and  _142
REMARK   63  A    between atoms: _142  and  _143
REMARK   64  A    between atoms: _145  and  _147
REMARK   65  A    between atoms: _147  and  _148
REMARK   66  A    between atoms: _150  and  _152
REMARK   67  A    between atoms: _152  and  _153
REMARK   68  A    between atoms: _152  and  _155
REMARK   69  A    between atoms: _155  and  _156
REMARK   70  A    between atoms: _159  and  _161
REMARK   71  A    between atoms: _161  and  _162
REMARK   72  A    between atoms: _164  and  _166
REMARK   73  A    between atoms: _166  and  _167
REMARK   74  A    between atoms: _169  and  _171
REMARK   75  A    between atoms: _171  and  _172
REMARK   76  A    between atoms: _171  and  _174
REMARK   77  A    between atoms: _174  and  _175
REMARK   78  A    between atoms: _181  and  _183
REMARK   79  A    between atoms: _183  and  _184
REMARK   80  A    between atoms: _183  and  _186
REMARK   81  A    between atoms: _189  and  _191
REMARK   82  A    between atoms: _191  and  _192
REMARK   83  A    between atoms: _191  and  _194
REMARK   84  A    between atoms: _197  and  _199
REMARK   85  A    between atoms: _199  and  _200
REMARK   86  A    between atoms: _199  and  _202
REMARK   87  A    between atoms: _202  and  _203
REMARK   88  A    between atoms: _207  and  _208
REMARK   89  A    between atoms: _213  and  _215
REMARK   90  A    between atoms: _215  and  _216
REMARK   91  A    between atoms: _215  and  _218
REMARK   92  A    between atoms: _218  and  _219
REMARK   93  A    between atoms: _223  and  _224
REMARK   94  A    between atoms: _229  and  _231
REMARK   95  A    between atoms: _231  and  _232
REMARK   96  A    between atoms: _231  and  _234
REMARK   97  A    between atoms: _237  and  _239
REMARK   98  A    between atoms: _239  and  _240
REMARK   99  A    between atoms: _239  and  _242
REMARK  100  A    between atoms: _242  and  _243
REMARK  101  A    between atoms: _248  and  _250
REMARK  102  A    between atoms: _250  and  _251
REMARK  103  A    between atoms: _250  and  _253
REMARK  104  A    between atoms: _253  and  _254
REMARK  105  A    between atoms: _257  and  _259
REMARK  106  A    between atoms: _259  and  _260
REMARK  107  A    between atoms: _259  and  _262
REMARK  108  A    between atoms: _262  and  _263
REMARK  109  A    between atoms: _266  and  _268
REMARK  110  A    between atoms: _268  and  _269
REMARK  111  A    between atoms: _271  and  _273
REMARK  112  A    between atoms: _273  and  _274
REMARK  113  A    between atoms: _273  and  _276
REMARK  114  A    between atoms: _277  and  _278
REMARK  115  A    between atoms: _278  and  _279
REMARK  116  A    between atoms: _288  and  _290
REMARK  117  A    between atoms: _290  and  _291
REMARK  118  A    between atoms: _290  and  _293
REMARK  119  A    between atoms: _293  and  _294
REMARK  120  A    between atoms: _299  and  _301
REMARK  121  A    between atoms: _301  and  _302
REMARK  122  A    between atoms: _301  and  _304
REMARK  123  A    between atoms: _304  and  _305
REMARK  124  A    between atoms: _305  and  _306
REMARK  125  A    between atoms: _306  and  _307
REMARK  126  A    between atoms: _316  and  _318
REMARK  127  A    between atoms: _318  and  _319
REMARK  128  A    between atoms: _318  and  _321
REMARK  129  A    between atoms: _321  and  _322
REMARK  130  A    between atoms: _325  and  _327
REMARK  131  A    between atoms: _327  and  _328
REMARK  132  A    between atoms: _327  and  _330
REMARK  133  A    between atoms: _330  and  _331
REMARK  134  A    between atoms: _334  and  _336
REMARK  135  A    between atoms: _336  and  _337
REMARK  136  A    between atoms: _336  and  _339
REMARK  137  A    between atoms: _339  and  _340
REMARK  138  A    between atoms: _343  and  _345
REMARK  139  A    between atoms: _345  and  _346
REMARK  140  A    between atoms: _345  and  _348
REMARK  141  A    between atoms: _348  and  _349
REMARK  142  A    between atoms: _352  and  _354
REMARK  143  A    between atoms: _354  and  _355
REMARK  144  A    between atoms: _357  and  _359
REMARK  145  A    between atoms: _359  and  _360
REMARK  146  A    between atoms: _363  and  _365
REMARK  147  A    between atoms: _365  and  _366
REMARK  148  A    between atoms: _365  and  _368
REMARK  149  A    between atoms: _368  and  _369
REMARK  150  A    between atoms: _372  and  _374
REMARK  151  A    between atoms: _374  and  _375
REMARK  152  A    between atoms: _374  and  _377
REMARK  153  A    between atoms: _377  and  _378
REMARK  154  A    between atoms: _381  and  _383
REMARK  155  A    between atoms: _383  and  _384
REMARK  156  A    between atoms: _383  and  _386
REMARK  157  A    between atoms: _386  and  _387
REMARK  158  A    between atoms: _390  and  _392
REMARK  159  A    between atoms: _392  and  _393
REMARK  160  A    between atoms: _392  and  _395
REMARK  161  A    between atoms: _398  and  _400
REMARK  162  A    between atoms: _400  and  _401
REMARK  163  A    between atoms: _400  and  _403
REMARK  164  A    between atoms: _403  and  _404
REMARK  165  A    between atoms: _407  and  _409
REMARK  166  A    between atoms: _409  and  _410
REMARK  167  A    between atoms: _409  and  _412
REMARK  168  A    between atoms: _412  and  _413
REMARK  169  A    between atoms: _413  and  _414
REMARK  170  A    between atoms: _414  and  _415
REMARK  171  A    between atoms: _415  and  _416
REMARK  172  A    between atoms: _420  and  _422
REMARK  173  A    between atoms: _422  and  _423
REMARK  174  A    between atoms: _422  and  _425
REMARK  175  A    between atoms: _425  and  _426
REMARK  176  A    between atoms: _426  and  _427
REMARK  177  A    between atoms: _429  and  _431
REMARK  178  A    between atoms: _431  and  _432
REMARK  179  A    between atoms: _431  and  _434
REMARK  180  A    between atoms: _434  and  _435
REMARK  181  A    between atoms: _438  and  _440
REMARK  182  A    between atoms: _440  and  _441
REMARK  183  A    between atoms: _443  and  _445
REMARK  184  A    between atoms: _445  and  _446
REMARK  185  A    between atoms: _448  and  _450
REMARK  186  A    between atoms: _450  and  _451
REMARK  187  A    between atoms: _450  and  _453
REMARK  188  A    between atoms: _453  and  _454
REMARK  189  A    between atoms: _457  and  _459
REMARK  190  A    between atoms: _459  and  _460
REMARK  191  A    between atoms: _462  and  _464
REMARK  192  A    between atoms: _464  and  _465
REMARK  193  A    between atoms: _467  and  _469
REMARK  194  A    between atoms: _469  and  _470
REMARK  195  A    between atoms: _469  and  _472
REMARK  196  A    between atoms: _472  and  _473
REMARK  197  A    between atoms: _479  and  _481
REMARK  198  A    between atoms: _481  and  _482
REMARK  199  A    between atoms: _481  and  _484
REMARK  200  A    between atoms: _487  and  _489
REMARK  201  A    between atoms: _489  and  _490
REMARK  202  A    between atoms: _489  and  _492
REMARK  203  A    between atoms: _495  and  _497
REMARK  204  A    between atoms: _497  and  _498
REMARK  205  A    between atoms: _497  and  _500
REMARK  206  A    between atoms: _500  and  _501
REMARK  207  A    between atoms: _504  and  _506
REMARK  208  A    between atoms: _506  and  _507
REMARK  209  A    between atoms: _506  and  _509
REMARK  210  A    between atoms: _509  and  _510
REMARK  211  A    between atoms: _514  and  _515
REMARK  212  A    between atoms: _520  and  _522
REMARK  213  A    between atoms: _522  and  _523
REMARK  214  A    between atoms: _522  and  _525
REMARK  215  A    between atoms: _528  and  _530
REMARK  216  A    between atoms: _530  and  _531
REMARK  217  A    between atoms: _530  and  _533
REMARK  218  A    between atoms: _533  and  _534
REMARK  219  A    between atoms: _539  and  _541
REMARK  220  A    between atoms: _541  and  _542
REMARK  221  A    between atoms: _541  and  _544
REMARK  222  A    between atoms: _544  and  _545
REMARK  223  A    between atoms: _548  and  _550
REMARK  224  A    between atoms: _550  and  _551
REMARK  225  A    between atoms: _550  and  _553
REMARK  226  A    between atoms: _553  and  _554
REMARK  227  A    between atoms: _557  and  _559
REMARK  228  A    between atoms: _559  and  _560
REMARK  229  A    between atoms: _562  and  _564
REMARK  230  A    between atoms: _564  and  _565
REMARK  231  A    between atoms: _564  and  _567
REMARK  232  A    between atoms: _567  and  _568
REMARK  233  A    between atoms: _568  and  _569
REMARK  234  A    between atoms: _569  and  _570
REMARK  235  A    between atoms: _579  and  _581
REMARK  236  A    between atoms: _581  and  _582
REMARK  237  A    between atoms: _581  and  _584
REMARK  238  A    between atoms: _584  and  _585
REMARK                            x       y       z     vdW  Elec       q    Type
REMARK                         _______ _______ _______ _____ _____    ______ ____
ROOT
ATOM      1  O   HOH     1      20.191  20.803  16.359  0.00  0.00    +0.000 OA
ENDROOT
TORSDOF 0
REMARK  Name = ../refined-set-2016/3nuj/3nuj_pocket.pdb
REMARK  238 active torsions:
REMARK  status: ('A' for Active; 'I' for Inactive)
REMARK    1  A    between atoms: _1  and  _3
REMARK    2  A    between atoms: _3  and  _4
REMARK    3  A    between atoms: _3  and  _6
REMARK    4  A    between atoms: _6  and  _7
REMARK    5  A    between atoms: _7  and  _8
REMARK    6  A    between atoms: _8  and  _9
REMARK    7  A    between atoms: _18  and  _20
REMARK    8  A    between atoms: _20  and  _21
REMARK    9  A    between atoms: _20  and  _23
REMARK   10  A    between atoms: _23  and  _24
REMARK   11  A    between atoms: _27  and  _29
REMARK   12  A    between atoms: _29  and  _30
REMARK   13  A    between atoms: _29  and  _32
REMARK   14  A    between atoms: _32  and  _33
REMARK   15  A    between atoms: _36  and  _38
REMARK   16  A    between atoms: _38  and  _39
REMARK   17  A    between atoms: _38  and  _41
REMARK   18  A    between atoms: _41  and  _42
REMARK   19  A    between atoms: _45  and  _47
REMARK   20  A    between atoms: _47  and  _48
REMARK   21  A    between atoms: _47  and  _50
REMARK   22  A    between atoms: _50  and  _51
REMARK   23  A    between atoms: _54  and  _56
REMARK   24  A    between atoms: _56  and  _57
REMARK   25  A    between atoms: _59  and  _61
REMARK   26  A    between atoms: _61  and  _62
REMARK   27  A    between atoms: _65  and  _67
REMARK   28  A    between atoms: _67  and  _68
REMARK   29  A    between atoms: _67  and  _70
REMARK   30  A    between atoms: _70  and  _71
REMARK   31  A    between atoms: _74  and  _76
REMARK   32  A    between atoms: _76  and  _77
REMARK   33  A    between atoms: _76  and  _79
REMARK   34  A    between atoms: _79  and  _80
REMARK   35  A    between atoms: _83  and  _85
REMARK   36  A    between atoms: _85  and  _86
REMARK   37  A    between atoms: _85  and  _88
REMARK   38  A    between atoms: _88  and  _89
REMARK   39  A    between atoms: _92  and  _94
REMARK   40  A    between atoms: _94  and  _95
REMARK   41  A    between atoms: _94  and  _97
REMARK   42  A    between atoms: _100  and  _102
REMARK   43  A    between atoms: _102  and  _103
REMARK   44  A    between atoms: _102  and  _105
REMARK   45  A    between atoms: _105  and  _106
REMARK   46  A    between atoms: _109  and  _111
REMARK   47  A    between atoms: _111  and  _112
REMARK   48  A    between atoms: _111  and  _114
REMARK   49  A    between atoms: _114  and  _115
REMARK   50  A    between atoms: _115  and  _116
REMARK   51  A    between atoms: _116  and  _117
REMARK   52  A    between atoms: _117  and  _118
REMARK   53  A    between atoms: _122  and  _124
REMARK   54  A    between atoms: _124  and  _125
REMARK   55  A    between atoms: _124  and  _127
REMARK   56  A    between atoms: _127  and  _128
REMARK   57  A    between atoms: _128  and  _129
REMARK   58  A    between atoms: _131  and  _133
REMARK   59  A    between atoms: _133  and  _134
REMARK   60  A    between atoms: _133  and  _136
REMARK   61  A    between atoms: _136  and  _137
REMARK   62  A    between atoms: _140  and  _142
REMARK   63  A    between atoms: _142  and  _143
REMARK   64  A    between atoms: _145  and  _147
REMARK   65  A    between atoms: _147  and  _148
REMARK   66  A    between atoms: _150  and  _152
REMARK   67  A    between atoms: _152  and  _153
REMARK   68  A    between atoms: _152  and  _155
REMARK   69  A    between atoms: _155  and  _156
REMARK   70  A    between atoms: _159  and  _161
REMARK   71  A    between atoms: _161  and  _162
REMARK   72  A    between atoms: _164  and  _166
REMARK   73  A    between atoms: _166  and  _167
REMARK   74  A    between atoms: _169  and  _171
REMARK   75  A    between atoms: _171  and  _172
REMARK   76  A    between atoms: _171  and  _174
REMARK   77  A    between atoms: _174  and  _175
REMARK   78  A    between atoms: _181  and  _183
REMARK   79  A    between atoms: _183  and  _184
REMARK   80  A    between atoms: _183  and  _186
REMARK   81  A    between atoms: _189  and  _191
REMARK   82  A    between atoms: _191  and  _192
REMARK   83  A    between atoms: _191  and  _194
REMARK   84  A    between atoms: _197  and  _199
REMARK   85  A    between atoms: _199  and  _200
REMARK   86  A    between atoms: _199  and  _202
REMARK   87  A    between atoms: _202  and  _203
REMARK   88  A    between atoms: _207  and  _208
REMARK   89  A    between atoms: _213  and  _215
REMARK   90  A    between atoms: _215  and  _216
REMARK   91  A    between atoms: _215  and  _218
REMARK   92  A    between atoms: _218  and  _219
REMARK   93  A    between atoms: _223  and  _224
REMARK   94  A    between atoms: _229  and  _231
REMARK   95  A    between atoms: _231  and  _232
REMARK   96  A    between atoms: _231  and  _234
REMARK   97  A    between atoms: _237  and  _239
REMARK   98  A    between atoms: _239  and  _240
REMARK   99  A    between atoms: _239  and  _242
REMARK  100  A    between atoms: _242  and  _243
REMARK  101  A    between atoms: _248  and  _250
REMARK  102  A    between atoms: _250  and  _251
REMARK  103  A    between atoms: _250  and  _253
REMARK  104  A    between atoms: _253  and  _254
REMARK  105  A    between atoms: _257  and  _259
REMARK  106  A    between atoms: _259  and  _260
REMARK  107  A    between atoms: _259  and  _262
REMARK  108  A    between atoms: _262  and  _263
REMARK  109  A    between atoms: _266  and  _268
REMARK  110  A    between atoms: _268  and  _269
REMARK  111  A    between atoms: _271  and  _273
REMARK  112  A    between atoms: _273  and  _274
REMARK  113  A    between atoms: _273  and  _276
REMARK  114  A    between atoms: _277  and  _278
REMARK  115  A    between atoms: _278  and  _279
REMARK  116  A    between atoms: _288  and  _290
REMARK  117  A    between atoms: _290  and  _291
REMARK  118  A    between atoms: _290  and  _293
REMARK  119  A    between atoms: _293  and  _294
REMARK  120  A    between atoms: _299  and  _301
REMARK  121  A    between atoms: _301  and  _302
REMARK  122  A    between atoms: _301  and  _304
REMARK  123  A    between atoms: _304  and  _305
REMARK  124  A    between atoms: _305  and  _306
REMARK  125  A    between atoms: _306  and  _307
REMARK  126  A    between atoms: _316  and  _318
REMARK  127  A    between atoms: _318  and  _319
REMARK  128  A    between atoms: _318  and  _321
REMARK  129  A    between atoms: _321  and  _322
REMARK  130  A    between atoms: _325  and  _327
REMARK  131  A    between atoms: _327  and  _328
REMARK  132  A    between atoms: _327  and  _330
REMARK  133  A    between atoms: _330  and  _331
REMARK  134  A    between atoms: _334  and  _336
REMARK  135  A    between atoms: _336  and  _337
REMARK  136  A    between atoms: _336  and  _339
REMARK  137  A    between atoms: _339  and  _340
REMARK  138  A    between atoms: _343  and  _345
REMARK  139  A    between atoms: _345  and  _346
REMARK  140  A    between atoms: _345  and  _348
REMARK  141  A    between atoms: _348  and  _349
REMARK  142  A    between atoms: _352  and  _354
REMARK  143  A    between atoms: _354  and  _355
REMARK  144  A    between atoms: _357  and  _359
REMARK  145  A    between atoms: _359  and  _360
REMARK  146  A    between atoms: _363  and  _365
REMARK  147  A    between atoms: _365  and  _366
REMARK  148  A    between atoms: _365  and  _368
REMARK  149  A    between atoms: _368  and  _369
REMARK  150  A    between atoms: _372  and  _374
REMARK  151  A    between atoms: _374  and  _375
REMARK  152  A    between atoms: _374  and  _377
REMARK  153  A    between atoms: _377  and  _378
REMARK  154  A    between atoms: _381  and  _383
REMARK  155  A    between atoms: _383  and  _384
REMARK  156  A    between atoms: _383  and  _386
REMARK  157  A    between atoms: _386  and  _387
REMARK  158  A    between atoms: _390  and  _392
REMARK  159  A    between atoms: _392  and  _393
REMARK  160  A    between atoms: _392  and  _395
REMARK  161  A    between atoms: _398  and  _400
REMARK  162  A    between atoms: _400  and  _401
REMARK  163  A    between atoms: _400  and  _403
REMARK  164  A    between atoms: _403  and  _404
REMARK  165  A    between atoms: _407  and  _409
REMARK  166  A    between atoms: _409  and  _410
REMARK  167  A    between atoms: _409  and  _412
REMARK  168  A    between atoms: _412  and  _413
REMARK  169  A    between atoms: _413  and  _414
REMARK  170  A    between atoms: _414  and  _415
REMARK  171  A    between atoms: _415  and  _416
REMARK  172  A    between atoms: _420  and  _422
REMARK  173  A    between atoms: _422  and  _423
REMARK  174  A    between atoms: _422  and  _425
REMARK  175  A    between atoms: _425  and  _426
REMARK  176  A    between atoms: _426  and  _427
REMARK  177  A    between atoms: _429  and  _431
REMARK  178  A    between atoms: _431  and  _432
REMARK  179  A    between atoms: _431  and  _434
REMARK  180  A    between atoms: _434  and  _435
REMARK  181  A    between atoms: _438  and  _440
REMARK  182  A    between atoms: _440  and  _441
REMARK  183  A    between atoms: _443  and  _445
REMARK  184  A    between atoms: _445  and  _446
REMARK  185  A    between atoms: _448  and  _450
REMARK  186  A    between atoms: _450  and  _451
REMARK  187  A    between atoms: _450  and  _453
REMARK  188  A    between atoms: _453  and  _454
REMARK  189  A    between atoms: _457  and  _459
REMARK  190  A    between atoms: _459  and  _460
REMARK  191  A    between atoms: _462  and  _464
REMARK  192  A    between atoms: _464  and  _465
REMARK  193  A    between atoms: _467  and  _469
REMARK  194  A    between atoms: _469  and  _470
REMARK  195  A    between atoms: _469  and  _472
REMARK  196  A    between atoms: _472  and  _473
REMARK  197  A    between atoms: _479  and  _481
REMARK  198  A    between atoms: _481  and  _482
REMARK  199  A    between atoms: _481  and  _484
REMARK  200  A    between atoms: _487  and  _489
REMARK  201  A    between atoms: _489  and  _490
REMARK  202  A    between atoms: _489  and  _492
REMARK  203  A    between atoms: _495  and  _497
REMARK  204  A    between atoms: _497  and  _498
REMARK  205  A    between atoms: _497  and  _500
REMARK  206  A    between atoms: _500  and  _501
REMARK  207  A    between atoms: _504  and  _506
REMARK  208  A    between atoms: _506  and  _507
REMARK  209  A    between atoms: _506  and  _509
REMARK  210  A    between atoms: _509  and  _510
REMARK  211  A    between atoms: _514  and  _515
REMARK  212  A    between atoms: _520  and  _522
REMARK  213  A    between atoms: _522  and  _523
REMARK  214  A    between atoms: _522  and  _525
REMARK  215  A    between atoms: _528  and  _530
REMARK  216  A    between atoms: _530  and  _531
REMARK  217  A    between atoms: _530  and  _533
REMARK  218  A    between atoms: _533  and  _534
REMARK  219  A    between atoms: _539  and  _541
REMARK  220  A    between atoms: _541  and  _542
REMARK  221  A    between atoms: _541  and  _544
REMARK  222  A    between atoms: _544  and  _545
REMARK  223  A    between atoms: _548  and  _550
REMARK  224  A    between atoms: _550  and  _551
REMARK  225  A    between atoms: _550  and  _553
REMARK  226  A    between atoms: _553  and  _554
REMARK  227  A    between atoms: _557  and  _559
REMARK  228  A    between atoms: _559  and  _560
REMARK  229  A    between atoms: _562  and  _564
REMARK  230  A    between atoms: _564  and  _565
REMARK  231  A    between atoms: _564  and  _567
REMARK  232  A    between atoms: _567  and  _568
REMARK  233  A    between atoms: _568  and  _569
REMARK  234  A    between atoms: _569  and  _570
REMARK  235  A    between atoms: _579  and  _581
REMARK  236  A    between atoms: _581  and  _582
REMARK  237  A    between atoms: _581  and  _584
REMARK  238  A    between atoms: _584  and  _585
REMARK                            x       y       z     vdW  Elec       q    Type
REMARK                         _______ _______ _______ _____ _____    ______ ____
ROOT
ATOM      1  O   HOH     1      11.081  22.409  16.396  0.00  0.00    +0.000 OA
ENDROOT
TORSDOF 0
REMARK  Name = ../refined-set-2016/3nuj/3nuj_pocket.pdb
REMARK  238 active torsions:
REMARK  status: ('A' for Active; 'I' for Inactive)
REMARK    1  A    between atoms: _1  and  _3
REMARK    2  A    between atoms: _3  and  _4
REMARK    3  A    between atoms: _3  and  _6
REMARK    4  A    between atoms: _6  and  _7
REMARK    5  A    between atoms: _7  and  _8
REMARK    6  A    between atoms: _8  and  _9
REMARK    7  A    between atoms: _18  and  _20
REMARK    8  A    between atoms: _20  and  _21
REMARK    9  A    between atoms: _20  and  _23
REMARK   10  A    between atoms: _23  and  _24
REMARK   11  A    between atoms: _27  and  _29
REMARK   12  A    between atoms: _29  and  _30
REMARK   13  A    between atoms: _29  and  _32
REMARK   14  A    between atoms: _32  and  _33
REMARK   15  A    between atoms: _36  and  _38
REMARK   16  A    between atoms: _38  and  _39
REMARK   17  A    between atoms: _38  and  _41
REMARK   18  A    between atoms: _41  and  _42
REMARK   19  A    between atoms: _45  and  _47
REMARK   20  A    between atoms: _47  and  _48
REMARK   21  A    between atoms: _47  and  _50
REMARK   22  A    between atoms: _50  and  _51
REMARK   23  A    between atoms: _54  and  _56
REMARK   24  A    between atoms: _56  and  _57
REMARK   25  A    between atoms: _59  and  _61
REMARK   26  A    between atoms: _61  and  _62
REMARK   27  A    between atoms: _65  and  _67
REMARK   28  A    between atoms: _67  and  _68
REMARK   29  A    between atoms: _67  and  _70
REMARK   30  A    between atoms: _70  and  _71
REMARK   31  A    between atoms: _74  and  _76
REMARK   32  A    between atoms: _76  and  _77
REMARK   33  A    between atoms: _76  and  _79
REMARK   34  A    between atoms: _79  and  _80
REMARK   35  A    between atoms: _83  and  _85
REMARK   36  A    between atoms: _85  and  _86
REMARK   37  A    between atoms: _85  and  _88
REMARK   38  A    between atoms: _88  and  _89
REMARK   39  A    between atoms: _92  and  _94
REMARK   40  A    between atoms: _94  and  _95
REMARK   41  A    between atoms: _94  and  _97
REMARK   42  A    between atoms: _100  and  _102
REMARK   43  A    between atoms: _102  and  _103
REMARK   44  A    between atoms: _102  and  _105
REMARK   45  A    between atoms: _105  and  _106
REMARK   46  A    between atoms: _109  and  _111
REMARK   47  A    between atoms: _111  and  _112
REMARK   48  A    between atoms: _111  and  _114
REMARK   49  A    between atoms: _114  and  _115
REMARK   50  A    between atoms: _115  and  _116
REMARK   51  A    between atoms: _116  and  _117
REMARK   52  A    between atoms: _117  and  _118
REMARK   53  A    between atoms: _122  and  _124
REMARK   54  A    between atoms: _124  and  _125
REMARK   55  A    between atoms: _124  and  _127
REMARK   56  A    between atoms: _127  and  _128
REMARK   57  A    between atoms: _128  and  _129
REMARK   58  A    between atoms: _131  and  _133
REMARK   59  A    between atoms: _133  and  _134
REMARK   60  A    between atoms: _133  and  _136
REMARK   61  A    between atoms: _136  and  _137
REMARK   62  A    between atoms: _140  and  _142
REMARK   63  A    between atoms: _142  and  _143
REMARK   64  A    between atoms: _145  and  _147
REMARK   65  A    between atoms: _147  and  _148
REMARK   66  A    between atoms: _150  and  _152
REMARK   67  A    between atoms: _152  and  _153
REMARK   68  A    between atoms: _152  and  _155
REMARK   69  A    between atoms: _155  and  _156
REMARK   70  A    between atoms: _159  and  _161
REMARK   71  A    between atoms: _161  and  _162
REMARK   72  A    between atoms: _164  and  _166
REMARK   73  A    between atoms: _166  and  _167
REMARK   74  A    between atoms: _169  and  _171
REMARK   75  A    between atoms: _171  and  _172
REMARK   76  A    between atoms: _171  and  _174
REMARK   77  A    between atoms: _174  and  _175
REMARK   78  A    between atoms: _181  and  _183
REMARK   79  A    between atoms: _183  and  _184
REMARK   80  A    between atoms: _183  and  _186
REMARK   81  A    between atoms: _189  and  _191
REMARK   82  A    between atoms: _191  and  _192
REMARK   83  A    between atoms: _191  and  _194
REMARK   84  A    between atoms: _197  and  _199
REMARK   85  A    between atoms: _199  and  _200
REMARK   86  A    between atoms: _199  and  _202
REMARK   87  A    between atoms: _202  and  _203
REMARK   88  A    between atoms: _207  and  _208
REMARK   89  A    between atoms: _213  and  _215
REMARK   90  A    between atoms: _215  and  _216
REMARK   91  A    between atoms: _215  and  _218
REMARK   92  A    between atoms: _218  and  _219
REMARK   93  A    between atoms: _223  and  _224
REMARK   94  A    between atoms: _229  and  _231
REMARK   95  A    between atoms: _231  and  _232
REMARK   96  A    between atoms: _231  and  _234
REMARK   97  A    between atoms: _237  and  _239
REMARK   98  A    between atoms: _239  and  _240
REMARK   99  A    between atoms: _239  and  _242
REMARK  100  A    between atoms: _242  and  _243
REMARK  101  A    between atoms: _248  and  _250
REMARK  102  A    between atoms: _250  and  _251
REMARK  103  A    between atoms: _250  and  _253
REMARK  104  A    between atoms: _253  and  _254
REMARK  105  A    between atoms: _257  and  _259
REMARK  106  A    between atoms: _259  and  _260
REMARK  107  A    between atoms: _259  and  _262
REMARK  108  A    between atoms: _262  and  _263
REMARK  109  A    between atoms: _266  and  _268
REMARK  110  A    between atoms: _268  and  _269
REMARK  111  A    between atoms: _271  and  _273
REMARK  112  A    between atoms: _273  and  _274
REMARK  113  A    between atoms: _273  and  _276
REMARK  114  A    between atoms: _277  and  _278
REMARK  115  A    between atoms: _278  and  _279
REMARK  116  A    between atoms: _288  and  _290
REMARK  117  A    between atoms: _290  and  _291
REMARK  118  A    between atoms: _290  and  _293
REMARK  119  A    between atoms: _293  and  _294
REMARK  120  A    between atoms: _299  and  _301
REMARK  121  A    between atoms: _301  and  _302
REMARK  122  A    between atoms: _301  and  _304
REMARK  123  A    between atoms: _304  and  _305
REMARK  124  A    between atoms: _305  and  _306
REMARK  125  A    between atoms: _306  and  _307
REMARK  126  A    between atoms: _316  and  _318
REMARK  127  A    between atoms: _318  and  _319
REMARK  128  A    between atoms: _318  and  _321
REMARK  129  A    between atoms: _321  and  _322
REMARK  130  A    between atoms: _325  and  _327
REMARK  131  A    between atoms: _327  and  _328
REMARK  132  A    between atoms: _327  and  _330
REMARK  133  A    between atoms: _330  and  _331
REMARK  134  A    between atoms: _334  and  _336
REMARK  135  A    between atoms: _336  and  _337
REMARK  136  A    between atoms: _336  and  _339
REMARK  137  A    between atoms: _339  and  _340
REMARK  138  A    between atoms: _343  and  _345
REMARK  139  A    between atoms: _345  and  _346
REMARK  140  A    between atoms: _345  and  _348
REMARK  141  A    between atoms: _348  and  _349
REMARK  142  A    between atoms: _352  and  _354
REMARK  143  A    between atoms: _354  and  _355
REMARK  144  A    between atoms: _357  and  _359
REMARK  145  A    between atoms: _359  and  _360
REMARK  146  A    between atoms: _363  and  _365
REMARK  147  A    between atoms: _365  and  _366
REMARK  148  A    between atoms: _365  and  _368
REMARK  149  A    between atoms: _368  and  _369
REMARK  150  A    between atoms: _372  and  _374
REMARK  151  A    between atoms: _374  and  _375
REMARK  152  A    between atoms: _374  and  _377
REMARK  153  A    between atoms: _377  and  _378
REMARK  154  A    between atoms: _381  and  _383
REMARK  155  A    between atoms: _383  and  _384
REMARK  156  A    between atoms: _383  and  _386
REMARK  157  A    between atoms: _386  and  _387
REMARK  158  A    between atoms: _390  and  _392
REMARK  159  A    between atoms: _392  and  _393
REMARK  160  A    between atoms: _392  and  _395
REMARK  161  A    between atoms: _398  and  _400
REMARK  162  A    between atoms: _400  and  _401
REMARK  163  A    between atoms: _400  and  _403
REMARK  164  A    between atoms: _403  and  _404
REMARK  165  A    between atoms: _407  and  _409
REMARK  166  A    between atoms: _409  and  _410
REMARK  167  A    between atoms: _409  and  _412
REMARK  168  A    between atoms: _412  and  _413
REMARK  169  A    between atoms: _413  and  _414
REMARK  170  A    between atoms: _414  and  _415
REMARK  171  A    between atoms: _415  and  _416
REMARK  172  A    between atoms: _420  and  _422
REMARK  173  A    between atoms: _422  and  _423
REMARK  174  A    between atoms: _422  and  _425
REMARK  175  A    between atoms: _425  and  _426
REMARK  176  A    between atoms: _426  and  _427
REMARK  177  A    between atoms: _429  and  _431
REMARK  178  A    between atoms: _431  and  _432
REMARK  179  A    between atoms: _431  and  _434
REMARK  180  A    between atoms: _434  and  _435
REMARK  181  A    between atoms: _438  and  _440
REMARK  182  A    between atoms: _440  and  _441
REMARK  183  A    between atoms: _443  and  _445
REMARK  184  A    between atoms: _445  and  _446
REMARK  185  A    between atoms: _448  and  _450
REMARK  186  A    between atoms: _450  and  _451
REMARK  187  A    between atoms: _450  and  _453
REMARK  188  A    between atoms: _453  and  _454
REMARK  189  A    between atoms: _457  and  _459
REMARK  190  A    between atoms: _459  and  _460
REMARK  191  A    between atoms: _462  and  _464
REMARK  192  A    between atoms: _464  and  _465
REMARK  193  A    between atoms: _467  and  _469
REMARK  194  A    between atoms: _469  and  _470
REMARK  195  A    between atoms: _469  and  _472
REMARK  196  A    between atoms: _472  and  _473
REMARK  197  A    between atoms: _479  and  _481
REMARK  198  A    between atoms: _481  and  _482
REMARK  199  A    between atoms: _481  and  _484
REMARK  200  A    between atoms: _487  and  _489
REMARK  201  A    between atoms: _489  and  _490
REMARK  202  A    between atoms: _489  and  _492
REMARK  203  A    between atoms: _495  and  _497
REMARK  204  A    between atoms: _497  and  _498
REMARK  205  A    between atoms: _497  and  _500
REMARK  206  A    between atoms: _500  and  _501
REMARK  207  A    between atoms: _504  and  _506
REMARK  208  A    between atoms: _506  and  _507
REMARK  209  A    between atoms: _506  and  _509
REMARK  210  A    between atoms: _509  and  _510
REMARK  211  A    between atoms: _514  and  _515
REMARK  212  A    between atoms: _520  and  _522
REMARK  213  A    between atoms: _522  and  _523
REMARK  214  A    between atoms: _522  and  _525
REMARK  215  A    between atoms: _528  and  _530
REMARK  216  A    between atoms: _530  and  _531
REMARK  217  A    between atoms: _530  and  _533
REMARK  218  A    between atoms: _533  and  _534
REMARK  219  A    between atoms: _539  and  _541
REMARK  220  A    between atoms: _541  and  _542
REMARK  221  A    between atoms: _541  and  _544
REMARK  222  A    between atoms: _544  and  _545
REMARK  223  A    between atoms: _548  and  _550
REMARK  224  A    between atoms: _550  and  _551
REMARK  225  A    between atoms: _550  and  _553
REMARK  226  A    between atoms: _553  and  _554
REMARK  227  A    between atoms: _557  and  _559
REMARK  228  A    between atoms: _559  and  _560
REMARK  229  A    between atoms: _562  and  _564
REMARK  230  A    between atoms: _564  and  _565
REMARK  231  A    between atoms: _564  and  _567
REMARK  232  A    between atoms: _567  and  _568
REMARK  233  A    between atoms: _568  and  _569
REMARK  234  A    between atoms: _569  and  _570
REMARK  235  A    between atoms: _579  and  _581
REMARK  236  A    between atoms: _581  and  _582
REMARK  237  A    between atoms: _581  and  _584
REMARK  238  A    between atoms: _584  and  _585
REMARK                            x       y       z     vdW  Elec       q    Type
REMARK                         _______ _______ _______ _____ _____    ______ ____
ROOT
ATOM      1  O   HOH     1      17.869  25.049  15.914  0.00  0.00    +0.000 OA
ENDROOT
TORSDOF 0
REMARK  Name = ../refined-set-2016/3nuj/3nuj_pocket.pdb
REMARK  238 active torsions:
REMARK  status: ('A' for Active; 'I' for Inactive)
REMARK    1  A    between atoms: _1  and  _3
REMARK    2  A    between atoms: _3  and  _4
REMARK    3  A    between atoms: _3  and  _6
REMARK    4  A    between atoms: _6  and  _7
REMARK    5  A    between atoms: _7  and  _8
REMARK    6  A    between atoms: _8  and  _9
REMARK    7  A    between atoms: _18  and  _20
REMARK    8  A    between atoms: _20  and  _21
REMARK    9  A    between atoms: _20  and  _23
REMARK   10  A    between atoms: _23  and  _24
REMARK   11  A    between atoms: _27  and  _29
REMARK   12  A    between atoms: _29  and  _30
REMARK   13  A    between atoms: _29  and  _32
REMARK   14  A    between atoms: _32  and  _33
REMARK   15  A    between atoms: _36  and  _38
REMARK   16  A    between atoms: _38  and  _39
REMARK   17  A    between atoms: _38  and  _41
REMARK   18  A    between atoms: _41  and  _42
REMARK   19  A    between atoms: _45  and  _47
REMARK   20  A    between atoms: _47  and  _48
REMARK   21  A    between atoms: _47  and  _50
REMARK   22  A    between atoms: _50  and  _51
REMARK   23  A    between atoms: _54  and  _56
REMARK   24  A    between atoms: _56  and  _57
REMARK   25  A    between atoms: _59  and  _61
REMARK   26  A    between atoms: _61  and  _62
REMARK   27  A    between atoms: _65  and  _67
REMARK   28  A    between atoms: _67  and  _68
REMARK   29  A    between atoms: _67  and  _70
REMARK   30  A    between atoms: _70  and  _71
REMARK   31  A    between atoms: _74  and  _76
REMARK   32  A    between atoms: _76  and  _77
REMARK   33  A    between atoms: _76  and  _79
REMARK   34  A    between atoms: _79  and  _80
REMARK   35  A    between atoms: _83  and  _85
REMARK   36  A    between atoms: _85  and  _86
REMARK   37  A    between atoms: _85  and  _88
REMARK   38  A    between atoms: _88  and  _89
REMARK   39  A    between atoms: _92  and  _94
REMARK   40  A    between atoms: _94  and  _95
REMARK   41  A    between atoms: _94  and  _97
REMARK   42  A    between atoms: _100  and  _102
REMARK   43  A    between atoms: _102  and  _103
REMARK   44  A    between atoms: _102  and  _105
REMARK   45  A    between atoms: _105  and  _106
REMARK   46  A    between atoms: _109  and  _111
REMARK   47  A    between atoms: _111  and  _112
REMARK   48  A    between atoms: _111  and  _114
REMARK   49  A    between atoms: _114  and  _115
REMARK   50  A    between atoms: _115  and  _116
REMARK   51  A    between atoms: _116  and  _117
REMARK   52  A    between atoms: _117  and  _118
REMARK   53  A    between atoms: _122  and  _124
REMARK   54  A    between atoms: _124  and  _125
REMARK   55  A    between atoms: _124  and  _127
REMARK   56  A    between atoms: _127  and  _128
REMARK   57  A    between atoms: _128  and  _129
REMARK   58  A    between atoms: _131  and  _133
REMARK   59  A    between atoms: _133  and  _134
REMARK   60  A    between atoms: _133  and  _136
REMARK   61  A    between atoms: _136  and  _137
REMARK   62  A    between atoms: _140  and  _142
REMARK   63  A    between atoms: _142  and  _143
REMARK   64  A    between atoms: _145  and  _147
REMARK   65  A    between atoms: _147  and  _148
REMARK   66  A    between atoms: _150  and  _152
REMARK   67  A    between atoms: _152  and  _153
REMARK   68  A    between atoms: _152  and  _155
REMARK   69  A    between atoms: _155  and  _156
REMARK   70  A    between atoms: _159  and  _161
REMARK   71  A    between atoms: _161  and  _162
REMARK   72  A    between atoms: _164  and  _166
REMARK   73  A    between atoms: _166  and  _167
REMARK   74  A    between atoms: _169  and  _171
REMARK   75  A    between atoms: _171  and  _172
REMARK   76  A    between atoms: _171  and  _174
REMARK   77  A    between atoms: _174  and  _175
REMARK   78  A    between atoms: _181  and  _183
REMARK   79  A    between atoms: _183  and  _184
REMARK   80  A    between atoms: _183  and  _186
REMARK   81  A    between atoms: _189  and  _191
REMARK   82  A    between atoms: _191  and  _192
REMARK   83  A    between atoms: _191  and  _194
REMARK   84  A    between atoms: _197  and  _199
REMARK   85  A    between atoms: _199  and  _200
REMARK   86  A    between atoms: _199  and  _202
REMARK   87  A    between atoms: _202  and  _203
REMARK   88  A    between atoms: _207  and  _208
REMARK   89  A    between atoms: _213  and  _215
REMARK   90  A    between atoms: _215  and  _216
REMARK   91  A    between atoms: _215  and  _218
REMARK   92  A    between atoms: _218  and  _219
REMARK   93  A    between atoms: _223  and  _224
REMARK   94  A    between atoms: _229  and  _231
REMARK   95  A    between atoms: _231  and  _232
REMARK   96  A    between atoms: _231  and  _234
REMARK   97  A    between atoms: _237  and  _239
REMARK   98  A    between atoms: _239  and  _240
REMARK   99  A    between atoms: _239  and  _242
REMARK  100  A    between atoms: _242  and  _243
REMARK  101  A    between atoms: _248  and  _250
REMARK  102  A    between atoms: _250  and  _251
REMARK  103  A    between atoms: _250  and  _253
REMARK  104  A    between atoms: _253  and  _254
REMARK  105  A    between atoms: _257  and  _259
REMARK  106  A    between atoms: _259  and  _260
REMARK  107  A    between atoms: _259  and  _262
REMARK  108  A    between atoms: _262  and  _263
REMARK  109  A    between atoms: _266  and  _268
REMARK  110  A    between atoms: _268  and  _269
REMARK  111  A    between atoms: _271  and  _273
REMARK  112  A    between atoms: _273  and  _274
REMARK  113  A    between atoms: _273  and  _276
REMARK  114  A    between atoms: _277  and  _278
REMARK  115  A    between atoms: _278  and  _279
REMARK  116  A    between atoms: _288  and  _290
REMARK  117  A    between atoms: _290  and  _291
REMARK  118  A    between atoms: _290  and  _293
REMARK  119  A    between atoms: _293  and  _294
REMARK  120  A    between atoms: _299  and  _301
REMARK  121  A    between atoms: _301  and  _302
REMARK  122  A    between atoms: _301  and  _304
REMARK  123  A    between atoms: _304  and  _305
REMARK  124  A    between atoms: _305  and  _306
REMARK  125  A    between atoms: _306  and  _307
REMARK  126  A    between atoms: _316  and  _318
REMARK  127  A    between atoms: _318  and  _319
REMARK  128  A    between atoms: _318  and  _321
REMARK  129  A    between atoms: _321  and  _322
REMARK  130  A    between atoms: _325  and  _327
REMARK  131  A    between atoms: _327  and  _328
REMARK  132  A    between atoms: _327  and  _330
REMARK  133  A    between atoms: _330  and  _331
REMARK  134  A    between atoms: _334  and  _336
REMARK  135  A    between atoms: _336  and  _337
REMARK  136  A    between atoms: _336  and  _339
REMARK  137  A    between atoms: _339  and  _340
REMARK  138  A    between atoms: _343  and  _345
REMARK  139  A    between atoms: _345  and  _346
REMARK  140  A    between atoms: _345  and  _348
REMARK  141  A    between atoms: _348  and  _349
REMARK  142  A    between atoms: _352  and  _354
REMARK  143  A    between atoms: _354  and  _355
REMARK  144  A    between atoms: _357  and  _359
REMARK  145  A    between atoms: _359  and  _360
REMARK  146  A    between atoms: _363  and  _365
REMARK  147  A    between atoms: _365  and  _366
REMARK  148  A    between atoms: _365  and  _368
REMARK  149  A    between atoms: _368  and  _369
REMARK  150  A    between atoms: _372  and  _374
REMARK  151  A    between atoms: _374  and  _375
REMARK  152  A    between atoms: _374  and  _377
REMARK  153  A    between atoms: _377  and  _378
REMARK  154  A    between atoms: _381  and  _383
REMARK  155  A    between atoms: _383  and  _384
REMARK  156  A    between atoms: _383  and  _386
REMARK  157  A    between atoms: _386  and  _387
REMARK  158  A    between atoms: _390  and  _392
REMARK  159  A    between atoms: _392  and  _393
REMARK  160  A    between atoms: _392  and  _395
REMARK  161  A    between atoms: _398  and  _400
REMARK  162  A    between atoms: _400  and  _401
REMARK  163  A    between atoms: _400  and  _403
REMARK  164  A    between atoms: _403  and  _404
REMARK  165  A    between atoms: _407  and  _409
REMARK  166  A    between atoms: _409  and  _410
REMARK  167  A    between atoms: _409  and  _412
REMARK  168  A    between atoms: _412  and  _413
REMARK  169  A    between atoms: _413  and  _414
REMARK  170  A    between atoms: _414  and  _415
REMARK  171  A    between atoms: _415  and  _416
REMARK  172  A    between atoms: _420  and  _422
REMARK  173  A    between atoms: _422  and  _423
REMARK  174  A    between atoms: _422  and  _425
REMARK  175  A    between atoms: _425  and  _426
REMARK  176  A    between atoms: _426  and  _427
REMARK  177  A    between atoms: _429  and  _431
REMARK  178  A    between atoms: _431  and  _432
REMARK  179  A    between atoms: _431  and  _434
REMARK  180  A    between atoms: _434  and  _435
REMARK  181  A    between atoms: _438  and  _440
REMARK  182  A    between atoms: _440  and  _441
REMARK  183  A    between atoms: _443  and  _445
REMARK  184  A    between atoms: _445  and  _446
REMARK  185  A    between atoms: _448  and  _450
REMARK  186  A    between atoms: _450  and  _451
REMARK  187  A    between atoms: _450  and  _453
REMARK  188  A    between atoms: _453  and  _454
REMARK  189  A    between atoms: _457  and  _459
REMARK  190  A    between atoms: _459  and  _460
REMARK  191  A    between atoms: _462  and  _464
REMARK  192  A    between atoms: _464  and  _465
REMARK  193  A    between atoms: _467  and  _469
REMARK  194  A    between atoms: _469  and  _470
REMARK  195  A    between atoms: _469  and  _472
REMARK  196  A    between atoms: _472  and  _473
REMARK  197  A    between atoms: _479  and  _481
REMARK  198  A    between atoms: _481  and  _482
REMARK  199  A    between atoms: _481  and  _484
REMARK  200  A    between atoms: _487  and  _489
REMARK  201  A    between atoms: _489  and  _490
REMARK  202  A    between atoms: _489  and  _492
REMARK  203  A    between atoms: _495  and  _497
REMARK  204  A    between atoms: _497  and  _498
REMARK  205  A    between atoms: _497  and  _500
REMARK  206  A    between atoms: _500  and  _501
REMARK  207  A    between atoms: _504  and  _506
REMARK  208  A    between atoms: _506  and  _507
REMARK  209  A    between atoms: _506  and  _509
REMARK  210  A    between atoms: _509  and  _510
REMARK  211  A    between atoms: _514  and  _515
REMARK  212  A    between atoms: _520  and  _522
REMARK  213  A    between atoms: _522  and  _523
REMARK  214  A    between atoms: _522  and  _525
REMARK  215  A    between atoms: _528  and  _530
REMARK  216  A    between atoms: _530  and  _531
REMARK  217  A    between atoms: _530  and  _533
REMARK  218  A    between atoms: _533  and  _534
REMARK  219  A    between atoms: _539  and  _541
REMARK  220  A    between atoms: _541  and  _542
REMARK  221  A    between atoms: _541  and  _544
REMARK  222  A    between atoms: _544  and  _545
REMARK  223  A    between atoms: _548  and  _550
REMARK  224  A    between atoms: _550  and  _551
REMARK  225  A    between atoms: _550  and  _553
REMARK  226  A    between atoms: _553  and  _554
REMARK  227  A    between atoms: _557  and  _559
REMARK  228  A    between atoms: _559  and  _560
REMARK  229  A    between atoms: _562  and  _564
REMARK  230  A    between atoms: _564  and  _565
REMARK  231  A    between atoms: _564  and  _567
REMARK  232  A    between atoms: _567  and  _568
REMARK  233  A    between atoms: _568  and  _569
REMARK  234  A    between atoms: _569  and  _570
REMARK  235  A    between atoms: _579  and  _581
REMARK  236  A    between atoms: _581  and  _582
REMARK  237  A    between atoms: _581  and  _584
REMARK  238  A    between atoms: _584  and  _585
REMARK                            x       y       z     vdW  Elec       q    Type
REMARK                         _______ _______ _______ _____ _____    ______ ____
ROOT
ATOM      1  O   HOH     1      17.101  26.456  11.602  0.00  0.00    +0.000 OA
ENDROOT
TORSDOF 0
REMARK  Name = ../refined-set-2016/3nuj/3nuj_pocket.pdb
REMARK  238 active torsions:
REMARK  status: ('A' for Active; 'I' for Inactive)
REMARK    1  A    between atoms: _1  and  _3
REMARK    2  A    between atoms: _3  and  _4
REMARK    3  A    between atoms: _3  and  _6
REMARK    4  A    between atoms: _6  and  _7
REMARK    5  A    between atoms: _7  and  _8
REMARK    6  A    between atoms: _8  and  _9
REMARK    7  A    between atoms: _18  and  _20
REMARK    8  A    between atoms: _20  and  _21
REMARK    9  A    between atoms: _20  and  _23
REMARK   10  A    between atoms: _23  and  _24
REMARK   11  A    between atoms: _27  and  _29
REMARK   12  A    between atoms: _29  and  _30
REMARK   13  A    between atoms: _29  and  _32
REMARK   14  A    between atoms: _32  and  _33
REMARK   15  A    between atoms: _36  and  _38
REMARK   16  A    between atoms: _38  and  _39
REMARK   17  A    between atoms: _38  and  _41
REMARK   18  A    between atoms: _41  and  _42
REMARK   19  A    between atoms: _45  and  _47
REMARK   20  A    between atoms: _47  and  _48
REMARK   21  A    between atoms: _47  and  _50
REMARK   22  A    between atoms: _50  and  _51
REMARK   23  A    between atoms: _54  and  _56
REMARK   24  A    between atoms: _56  and  _57
REMARK   25  A    between atoms: _59  and  _61
REMARK   26  A    between atoms: _61  and  _62
REMARK   27  A    between atoms: _65  and  _67
REMARK   28  A    between atoms: _67  and  _68
REMARK   29  A    between atoms: _67  and  _70
REMARK   30  A    between atoms: _70  and  _71
REMARK   31  A    between atoms: _74  and  _76
REMARK   32  A    between atoms: _76  and  _77
REMARK   33  A    between atoms: _76  and  _79
REMARK   34  A    between atoms: _79  and  _80
REMARK   35  A    between atoms: _83  and  _85
REMARK   36  A    between atoms: _85  and  _86
REMARK   37  A    between atoms: _85  and  _88
REMARK   38  A    between atoms: _88  and  _89
REMARK   39  A    between atoms: _92  and  _94
REMARK   40  A    between atoms: _94  and  _95
REMARK   41  A    between atoms: _94  and  _97
REMARK   42  A    between atoms: _100  and  _102
REMARK   43  A    between atoms: _102  and  _103
REMARK   44  A    between atoms: _102  and  _105
REMARK   45  A    between atoms: _105  and  _106
REMARK   46  A    between atoms: _109  and  _111
REMARK   47  A    between atoms: _111  and  _112
REMARK   48  A    between atoms: _111  and  _114
REMARK   49  A    between atoms: _114  and  _115
REMARK   50  A    between atoms: _115  and  _116
REMARK   51  A    between atoms: _116  and  _117
REMARK   52  A    between atoms: _117  and  _118
REMARK   53  A    between atoms: _122  and  _124
REMARK   54  A    between atoms: _124  and  _125
REMARK   55  A    between atoms: _124  and  _127
REMARK   56  A    between atoms: _127  and  _128
REMARK   57  A    between atoms: _128  and  _129
REMARK   58  A    between atoms: _131  and  _133
REMARK   59  A    between atoms: _133  and  _134
REMARK   60  A    between atoms: _133  and  _136
REMARK   61  A    between atoms: _136  and  _137
REMARK   62  A    between atoms: _140  and  _142
REMARK   63  A    between atoms: _142  and  _143
REMARK   64  A    between atoms: _145  and  _147
REMARK   65  A    between atoms: _147  and  _148
REMARK   66  A    between atoms: _150  and  _152
REMARK   67  A    between atoms: _152  and  _153
REMARK   68  A    between atoms: _152  and  _155
REMARK   69  A    between atoms: _155  and  _156
REMARK   70  A    between atoms: _159  and  _161
REMARK   71  A    between atoms: _161  and  _162
REMARK   72  A    between atoms: _164  and  _166
REMARK   73  A    between atoms: _166  and  _167
REMARK   74  A    between atoms: _169  and  _171
REMARK   75  A    between atoms: _171  and  _172
REMARK   76  A    between atoms: _171  and  _174
REMARK   77  A    between atoms: _174  and  _175
REMARK   78  A    between atoms: _181  and  _183
REMARK   79  A    between atoms: _183  and  _184
REMARK   80  A    between atoms: _183  and  _186
REMARK   81  A    between atoms: _189  and  _191
REMARK   82  A    between atoms: _191  and  _192
REMARK   83  A    between atoms: _191  and  _194
REMARK   84  A    between atoms: _197  and  _199
REMARK   85  A    between atoms: _199  and  _200
REMARK   86  A    between atoms: _199  and  _202
REMARK   87  A    between atoms: _202  and  _203
REMARK   88  A    between atoms: _207  and  _208
REMARK   89  A    between atoms: _213  and  _215
REMARK   90  A    between atoms: _215  and  _216
REMARK   91  A    between atoms: _215  and  _218
REMARK   92  A    between atoms: _218  and  _219
REMARK   93  A    between atoms: _223  and  _224
REMARK   94  A    between atoms: _229  and  _231
REMARK   95  A    between atoms: _231  and  _232
REMARK   96  A    between atoms: _231  and  _234
REMARK   97  A    between atoms: _237  and  _239
REMARK   98  A    between atoms: _239  and  _240
REMARK   99  A    between atoms: _239  and  _242
REMARK  100  A    between atoms: _242  and  _243
REMARK  101  A    between atoms: _248  and  _250
REMARK  102  A    between atoms: _250  and  _251
REMARK  103  A    between atoms: _250  and  _253
REMARK  104  A    between atoms: _253  and  _254
REMARK  105  A    between atoms: _257  and  _259
REMARK  106  A    between atoms: _259  and  _260
REMARK  107  A    between atoms: _259  and  _262
REMARK  108  A    between atoms: _262  and  _263
REMARK  109  A    between atoms: _266  and  _268
REMARK  110  A    between atoms: _268  and  _269
REMARK  111  A    between atoms: _271  and  _273
REMARK  112  A    between atoms: _273  and  _274
REMARK  113  A    between atoms: _273  and  _276
REMARK  114  A    between atoms: _277  and  _278
REMARK  115  A    between atoms: _278  and  _279
REMARK  116  A    between atoms: _288  and  _290
REMARK  117  A    between atoms: _290  and  _291
REMARK  118  A    between atoms: _290  and  _293
REMARK  119  A    between atoms: _293  and  _294
REMARK  120  A    between atoms: _299  and  _301
REMARK  121  A    between atoms: _301  and  _302
REMARK  122  A    between atoms: _301  and  _304
REMARK  123  A    between atoms: _304  and  _305
REMARK  124  A    between atoms: _305  and  _306
REMARK  125  A    between atoms: _306  and  _307
REMARK  126  A    between atoms: _316  and  _318
REMARK  127  A    between atoms: _318  and  _319
REMARK  128  A    between atoms: _318  and  _321
REMARK  129  A    between atoms: _321  and  _322
REMARK  130  A    between atoms: _325  and  _327
REMARK  131  A    between atoms: _327  and  _328
REMARK  132  A    between atoms: _327  and  _330
REMARK  133  A    between atoms: _330  and  _331
REMARK  134  A    between atoms: _334  and  _336
REMARK  135  A    between atoms: _336  and  _337
REMARK  136  A    between atoms: _336  and  _339
REMARK  137  A    between atoms: _339  and  _340
REMARK  138  A    between atoms: _343  and  _345
REMARK  139  A    between atoms: _345  and  _346
REMARK  140  A    between atoms: _345  and  _348
REMARK  141  A    between atoms: _348  and  _349
REMARK  142  A    between atoms: _352  and  _354
REMARK  143  A    between atoms: _354  and  _355
REMARK  144  A    between atoms: _357  and  _359
REMARK  145  A    between atoms: _359  and  _360
REMARK  146  A    between atoms: _363  and  _365
REMARK  147  A    between atoms: _365  and  _366
REMARK  148  A    between atoms: _365  and  _368
REMARK  149  A    between atoms: _368  and  _369
REMARK  150  A    between atoms: _372  and  _374
REMARK  151  A    between atoms: _374  and  _375
REMARK  152  A    between atoms: _374  and  _377
REMARK  153  A    between atoms: _377  and  _378
REMARK  154  A    between atoms: _381  and  _383
REMARK  155  A    between atoms: _383  and  _384
REMARK  156  A    between atoms: _383  and  _386
REMARK  157  A    between atoms: _386  and  _387
REMARK  158  A    between atoms: _390  and  _392
REMARK  159  A    between atoms: _392  and  _393
REMARK  160  A    between atoms: _392  and  _395
REMARK  161  A    between atoms: _398  and  _400
REMARK  162  A    between atoms: _400  and  _401
REMARK  163  A    between atoms: _400  and  _403
REMARK  164  A    between atoms: _403  and  _404
REMARK  165  A    between atoms: _407  and  _409
REMARK  166  A    between atoms: _409  and  _410
REMARK  167  A    between atoms: _409  and  _412
REMARK  168  A    between atoms: _412  and  _413
REMARK  169  A    between atoms: _413  and  _414
REMARK  170  A    between atoms: _414  and  _415
REMARK  171  A    between atoms: _415  and  _416
REMARK  172  A    between atoms: _420  and  _422
REMARK  173  A    between atoms: _422  and  _423
REMARK  174  A    between atoms: _422  and  _425
REMARK  175  A    between atoms: _425  and  _426
REMARK  176  A    between atoms: _426  and  _427
REMARK  177  A    between atoms: _429  and  _431
REMARK  178  A    between atoms: _431  and  _432
REMARK  179  A    between atoms: _431  and  _434
REMARK  180  A    between atoms: _434  and  _435
REMARK  181  A    between atoms: _438  and  _440
REMARK  182  A    between atoms: _440  and  _441
REMARK  183  A    between atoms: _443  and  _445
REMARK  184  A    between atoms: _445  and  _446
REMARK  185  A    between atoms: _448  and  _450
REMARK  186  A    between atoms: _450  and  _451
REMARK  187  A    between atoms: _450  and  _453
REMARK  188  A    between atoms: _453  and  _454
REMARK  189  A    between atoms: _457  and  _459
REMARK  190  A    between atoms: _459  and  _460
REMARK  191  A    between atoms: _462  and  _464
REMARK  192  A    between atoms: _464  and  _465
REMARK  193  A    between atoms: _467  and  _469
REMARK  194  A    between atoms: _469  and  _470
REMARK  195  A    between atoms: _469  and  _472
REMARK  196  A    between atoms: _472  and  _473
REMARK  197  A    between atoms: _479  and  _481
REMARK  198  A    between atoms: _481  and  _482
REMARK  199  A    between atoms: _481  and  _484
REMARK  200  A    between atoms: _487  and  _489
REMARK  201  A    between atoms: _489  and  _490
REMARK  202  A    between atoms: _489  and  _492
REMARK  203  A    between atoms: _495  and  _497
REMARK  204  A    between atoms: _497  and  _498
REMARK  205  A    between atoms: _497  and  _500
REMARK  206  A    between atoms: _500  and  _501
REMARK  207  A    between atoms: _504  and  _506
REMARK  208  A    between atoms: _506  and  _507
REMARK  209  A    between atoms: _506  and  _509
REMARK  210  A    between atoms: _509  and  _510
REMARK  211  A    between atoms: _514  and  _515
REMARK  212  A    between atoms: _520  and  _522
REMARK  213  A    between atoms: _522  and  _523
REMARK  214  A    between atoms: _522  and  _525
REMARK  215  A    between atoms: _528  and  _530
REMARK  216  A    between atoms: _530  and  _531
REMARK  217  A    between atoms: _530  and  _533
REMARK  218  A    between atoms: _533  and  _534
REMARK  219  A    between atoms: _539  and  _541
REMARK  220  A    between atoms: _541  and  _542
REMARK  221  A    between atoms: _541  and  _544
REMARK  222  A    between atoms: _544  and  _545
REMARK  223  A    between atoms: _548  and  _550
REMARK  224  A    between atoms: _550  and  _551
REMARK  225  A    between atoms: _550  and  _553
REMARK  226  A    between atoms: _553  and  _554
REMARK  227  A    between atoms: _557  and  _559
REMARK  228  A    between atoms: _559  and  _560
REMARK  229  A    between atoms: _562  and  _564
REMARK  230  A    between atoms: _564  and  _565
REMARK  231  A    between atoms: _564  and  _567
REMARK  232  A    between atoms: _567  and  _568
REMARK  233  A    between atoms: _568  and  _569
REMARK  234  A    between atoms: _569  and  _570
REMARK  235  A    between atoms: _579  and  _581
REMARK  236  A    between atoms: _581  and  _582
REMARK  237  A    between atoms: _581  and  _584
REMARK  238  A    between atoms: _584  and  _585
REMARK                            x       y       z     vdW  Elec       q    Type
REMARK                         _______ _______ _______ _____ _____    ______ ____
ROOT
ATOM      1  O   HOH     1      10.070  25.429   8.144  0.00  0.00    +0.000 OA
ENDROOT
TORSDOF 0
REMARK  Name = ../refined-set-2016/3nuj/3nuj_pocket.pdb
REMARK  238 active torsions:
REMARK  status: ('A' for Active; 'I' for Inactive)
REMARK    1  A    between atoms: _1  and  _3
REMARK    2  A    between atoms: _3  and  _4
REMARK    3  A    between atoms: _3  and  _6
REMARK    4  A    between atoms: _6  and  _7
REMARK    5  A    between atoms: _7  and  _8
REMARK    6  A    between atoms: _8  and  _9
REMARK    7  A    between atoms: _18  and  _20
REMARK    8  A    between atoms: _20  and  _21
REMARK    9  A    between atoms: _20  and  _23
REMARK   10  A    between atoms: _23  and  _24
REMARK   11  A    between atoms: _27  and  _29
REMARK   12  A    between atoms: _29  and  _30
REMARK   13  A    between atoms: _29  and  _32
REMARK   14  A    between atoms: _32  and  _33
REMARK   15  A    between atoms: _36  and  _38
REMARK   16  A    between atoms: _38  and  _39
REMARK   17  A    between atoms: _38  and  _41
REMARK   18  A    between atoms: _41  and  _42
REMARK   19  A    between atoms: _45  and  _47
REMARK   20  A    between atoms: _47  and  _48
REMARK   21  A    between atoms: _47  and  _50
REMARK   22  A    between atoms: _50  and  _51
REMARK   23  A    between atoms: _54  and  _56
REMARK   24  A    between atoms: _56  and  _57
REMARK   25  A    between atoms: _59  and  _61
REMARK   26  A    between atoms: _61  and  _62
REMARK   27  A    between atoms: _65  and  _67
REMARK   28  A    between atoms: _67  and  _68
REMARK   29  A    between atoms: _67  and  _70
REMARK   30  A    between atoms: _70  and  _71
REMARK   31  A    between atoms: _74  and  _76
REMARK   32  A    between atoms: _76  and  _77
REMARK   33  A    between atoms: _76  and  _79
REMARK   34  A    between atoms: _79  and  _80
REMARK   35  A    between atoms: _83  and  _85
REMARK   36  A    between atoms: _85  and  _86
REMARK   37  A    between atoms: _85  and  _88
REMARK   38  A    between atoms: _88  and  _89
REMARK   39  A    between atoms: _92  and  _94
REMARK   40  A    between atoms: _94  and  _95
REMARK   41  A    between atoms: _94  and  _97
REMARK   42  A    between atoms: _100  and  _102
REMARK   43  A    between atoms: _102  and  _103
REMARK   44  A    between atoms: _102  and  _105
REMARK   45  A    between atoms: _105  and  _106
REMARK   46  A    between atoms: _109  and  _111
REMARK   47  A    between atoms: _111  and  _112
REMARK   48  A    between atoms: _111  and  _114
REMARK   49  A    between atoms: _114  and  _115
REMARK   50  A    between atoms: _115  and  _116
REMARK   51  A    between atoms: _116  and  _117
REMARK   52  A    between atoms: _117  and  _118
REMARK   53  A    between atoms: _122  and  _124
REMARK   54  A    between atoms: _124  and  _125
REMARK   55  A    between atoms: _124  and  _127
REMARK   56  A    between atoms: _127  and  _128
REMARK   57  A    between atoms: _128  and  _129
REMARK   58  A    between atoms: _131  and  _133
REMARK   59  A    between atoms: _133  and  _134
REMARK   60  A    between atoms: _133  and  _136
REMARK   61  A    between atoms: _136  and  _137
REMARK   62  A    between atoms: _140  and  _142
REMARK   63  A    between atoms: _142  and  _143
REMARK   64  A    between atoms: _145  and  _147
REMARK   65  A    between atoms: _147  and  _148
REMARK   66  A    between atoms: _150  and  _152
REMARK   67  A    between atoms: _152  and  _153
REMARK   68  A    between atoms: _152  and  _155
REMARK   69  A    between atoms: _155  and  _156
REMARK   70  A    between atoms: _159  and  _161
REMARK   71  A    between atoms: _161  and  _162
REMARK   72  A    between atoms: _164  and  _166
REMARK   73  A    between atoms: _166  and  _167
REMARK   74  A    between atoms: _169  and  _171
REMARK   75  A    between atoms: _171  and  _172
REMARK   76  A    between atoms: _171  and  _174
REMARK   77  A    between atoms: _174  and  _175
REMARK   78  A    between atoms: _181  and  _183
REMARK   79  A    between atoms: _183  and  _184
REMARK   80  A    between atoms: _183  and  _186
REMARK   81  A    between atoms: _189  and  _191
REMARK   82  A    between atoms: _191  and  _192
REMARK   83  A    between atoms: _191  and  _194
REMARK   84  A    between atoms: _197  and  _199
REMARK   85  A    between atoms: _199  and  _200
REMARK   86  A    between atoms: _199  and  _202
REMARK   87  A    between atoms: _202  and  _203
REMARK   88  A    between atoms: _207  and  _208
REMARK   89  A    between atoms: _213  and  _215
REMARK   90  A    between atoms: _215  and  _216
REMARK   91  A    between atoms: _215  and  _218
REMARK   92  A    between atoms: _218  and  _219
REMARK   93  A    between atoms: _223  and  _224
REMARK   94  A    between atoms: _229  and  _231
REMARK   95  A    between atoms: _231  and  _232
REMARK   96  A    between atoms: _231  and  _234
REMARK   97  A    between atoms: _237  and  _239
REMARK   98  A    between atoms: _239  and  _240
REMARK   99  A    between atoms: _239  and  _242
REMARK  100  A    between atoms: _242  and  _243
REMARK  101  A    between atoms: _248  and  _250
REMARK  102  A    between atoms: _250  and  _251
REMARK  103  A    between atoms: _250  and  _253
REMARK  104  A    between atoms: _253  and  _254
REMARK  105  A    between atoms: _257  and  _259
REMARK  106  A    between atoms: _259  and  _260
REMARK  107  A    between atoms: _259  and  _262
REMARK  108  A    between atoms: _262  and  _263
REMARK  109  A    between atoms: _266  and  _268
REMARK  110  A    between atoms: _268  and  _269
REMARK  111  A    between atoms: _271  and  _273
REMARK  112  A    between atoms: _273  and  _274
REMARK  113  A    between atoms: _273  and  _276
REMARK  114  A    between atoms: _277  and  _278
REMARK  115  A    between atoms: _278  and  _279
REMARK  116  A    between atoms: _288  and  _290
REMARK  117  A    between atoms: _290  and  _291
REMARK  118  A    between atoms: _290  and  _293
REMARK  119  A    between atoms: _293  and  _294
REMARK  120  A    between atoms: _299  and  _301
REMARK  121  A    between atoms: _301  and  _302
REMARK  122  A    between atoms: _301  and  _304
REMARK  123  A    between atoms: _304  and  _305
REMARK  124  A    between atoms: _305  and  _306
REMARK  125  A    between atoms: _306  and  _307
REMARK  126  A    between atoms: _316  and  _318
REMARK  127  A    between atoms: _318  and  _319
REMARK  128  A    between atoms: _318  and  _321
REMARK  129  A    between atoms: _321  and  _322
REMARK  130  A    between atoms: _325  and  _327
REMARK  131  A    between atoms: _327  and  _328
REMARK  132  A    between atoms: _327  and  _330
REMARK  133  A    between atoms: _330  and  _331
REMARK  134  A    between atoms: _334  and  _336
REMARK  135  A    between atoms: _336  and  _337
REMARK  136  A    between atoms: _336  and  _339
REMARK  137  A    between atoms: _339  and  _340
REMARK  138  A    between atoms: _343  and  _345
REMARK  139  A    between atoms: _345  and  _346
REMARK  140  A    between atoms: _345  and  _348
REMARK  141  A    between atoms: _348  and  _349
REMARK  142  A    between atoms: _352  and  _354
REMARK  143  A    between atoms: _354  and  _355
REMARK  144  A    between atoms: _357  and  _359
REMARK  145  A    between atoms: _359  and  _360
REMARK  146  A    between atoms: _363  and  _365
REMARK  147  A    between atoms: _365  and  _366
REMARK  148  A    between atoms: _365  and  _368
REMARK  149  A    between atoms: _368  and  _369
REMARK  150  A    between atoms: _372  and  _374
REMARK  151  A    between atoms: _374  and  _375
REMARK  152  A    between atoms: _374  and  _377
REMARK  153  A    between atoms: _377  and  _378
REMARK  154  A    between atoms: _381  and  _383
REMARK  155  A    between atoms: _383  and  _384
REMARK  156  A    between atoms: _383  and  _386
REMARK  157  A    between atoms: _386  and  _387
REMARK  158  A    between atoms: _390  and  _392
REMARK  159  A    between atoms: _392  and  _393
REMARK  160  A    between atoms: _392  and  _395
REMARK  161  A    between atoms: _398  and  _400
REMARK  162  A    between atoms: _400  and  _401
REMARK  163  A    between atoms: _400  and  _403
REMARK  164  A    between atoms: _403  and  _404
REMARK  165  A    between atoms: _407  and  _409
REMARK  166  A    between atoms: _409  and  _410
REMARK  167  A    between atoms: _409  and  _412
REMARK  168  A    between atoms: _412  and  _413
REMARK  169  A    between atoms: _413  and  _414
REMARK  170  A    between atoms: _414  and  _415
REMARK  171  A    between atoms: _415  and  _416
REMARK  172  A    between atoms: _420  and  _422
REMARK  173  A    between atoms: _422  and  _423
REMARK  174  A    between atoms: _422  and  _425
REMARK  175  A    between atoms: _425  and  _426
REMARK  176  A    between atoms: _426  and  _427
REMARK  177  A    between atoms: _429  and  _431
REMARK  178  A    between atoms: _431  and  _432
REMARK  179  A    between atoms: _431  and  _434
REMARK  180  A    between atoms: _434  and  _435
REMARK  181  A    between atoms: _438  and  _440
REMARK  182  A    between atoms: _440  and  _441
REMARK  183  A    between atoms: _443  and  _445
REMARK  184  A    between atoms: _445  and  _446
REMARK  185  A    between atoms: _448  and  _450
REMARK  186  A    between atoms: _450  and  _451
REMARK  187  A    between atoms: _450  and  _453
REMARK  188  A    between atoms: _453  and  _454
REMARK  189  A    between atoms: _457  and  _459
REMARK  190  A    between atoms: _459  and  _460
REMARK  191  A    between atoms: _462  and  _464
REMARK  192  A    between atoms: _464  and  _465
REMARK  193  A    between atoms: _467  and  _469
REMARK  194  A    between atoms: _469  and  _470
REMARK  195  A    between atoms: _469  and  _472
REMARK  196  A    between atoms: _472  and  _473
REMARK  197  A    between atoms: _479  and  _481
REMARK  198  A    between atoms: _481  and  _482
REMARK  199  A    between atoms: _481  and  _484
REMARK  200  A    between atoms: _487  and  _489
REMARK  201  A    between atoms: _489  and  _490
REMARK  202  A    between atoms: _489  and  _492
REMARK  203  A    between atoms: _495  and  _497
REMARK  204  A    between atoms: _497  and  _498
REMARK  205  A    between atoms: _497  and  _500
REMARK  206  A    between atoms: _500  and  _501
REMARK  207  A    between atoms: _504  and  _506
REMARK  208  A    between atoms: _506  and  _507
REMARK  209  A    between atoms: _506  and  _509
REMARK  210  A    between atoms: _509  and  _510
REMARK  211  A    between atoms: _514  and  _515
REMARK  212  A    between atoms: _520  and  _522
REMARK  213  A    between atoms: _522  and  _523
REMARK  214  A    between atoms: _522  and  _525
REMARK  215  A    between atoms: _528  and  _530
REMARK  216  A    between atoms: _530  and  _531
REMARK  217  A    between atoms: _530  and  _533
REMARK  218  A    between atoms: _533  and  _534
REMARK  219  A    between atoms: _539  and  _541
REMARK  220  A    between atoms: _541  and  _542
REMARK  221  A    between atoms: _541  and  _544
REMARK  222  A    between atoms: _544  and  _545
REMARK  223  A    between atoms: _548  and  _550
REMARK  224  A    between atoms: _550  and  _551
REMARK  225  A    between atoms: _550  and  _553
REMARK  226  A    between atoms: _553  and  _554
REMARK  227  A    between atoms: _557  and  _559
REMARK  228  A    between atoms: _559  and  _560
REMARK  229  A    between atoms: _562  and  _564
REMARK  230  A    between atoms: _564  and  _565
REMARK  231  A    between atoms: _564  and  _567
REMARK  232  A    between atoms: _567  and  _568
REMARK  233  A    between atoms: _568  and  _569
REMARK  234  A    between atoms: _569  and  _570
REMARK  235  A    between atoms: _579  and  _581
REMARK  236  A    between atoms: _581  and  _582
REMARK  237  A    between atoms: _581  and  _584
REMARK  238  A    between atoms: _584  and  _585
REMARK                            x       y       z     vdW  Elec       q    Type
REMARK                         _______ _______ _______ _____ _____    ______ ____
ROOT
ATOM      1  O   HOH     1      22.059  27.177  24.961  0.00  0.00    +0.000 OA
ENDROOT
TORSDOF 0
REMARK  Name = ../refined-set-2016/3nuj/3nuj_pocket.pdb
REMARK  238 active torsions:
REMARK  status: ('A' for Active; 'I' for Inactive)
REMARK    1  A    between atoms: _1  and  _3
REMARK    2  A    between atoms: _3  and  _4
REMARK    3  A    between atoms: _3  and  _6
REMARK    4  A    between atoms: _6  and  _7
REMARK    5  A    between atoms: _7  and  _8
REMARK    6  A    between atoms: _8  and  _9
REMARK    7  A    between atoms: _18  and  _20
REMARK    8  A    between atoms: _20  and  _21
REMARK    9  A    between atoms: _20  and  _23
REMARK   10  A    between atoms: _23  and  _24
REMARK   11  A    between atoms: _27  and  _29
REMARK   12  A    between atoms: _29  and  _30
REMARK   13  A    between atoms: _29  and  _32
REMARK   14  A    between atoms: _32  and  _33
REMARK   15  A    between atoms: _36  and  _38
REMARK   16  A    between atoms: _38  and  _39
REMARK   17  A    between atoms: _38  and  _41
REMARK   18  A    between atoms: _41  and  _42
REMARK   19  A    between atoms: _45  and  _47
REMARK   20  A    between atoms: _47  and  _48
REMARK   21  A    between atoms: _47  and  _50
REMARK   22  A    between atoms: _50  and  _51
REMARK   23  A    between atoms: _54  and  _56
REMARK   24  A    between atoms: _56  and  _57
REMARK   25  A    between atoms: _59  and  _61
REMARK   26  A    between atoms: _61  and  _62
REMARK   27  A    between atoms: _65  and  _67
REMARK   28  A    between atoms: _67  and  _68
REMARK   29  A    between atoms: _67  and  _70
REMARK   30  A    between atoms: _70  and  _71
REMARK   31  A    between atoms: _74  and  _76
REMARK   32  A    between atoms: _76  and  _77
REMARK   33  A    between atoms: _76  and  _79
REMARK   34  A    between atoms: _79  and  _80
REMARK   35  A    between atoms: _83  and  _85
REMARK   36  A    between atoms: _85  and  _86
REMARK   37  A    between atoms: _85  and  _88
REMARK   38  A    between atoms: _88  and  _89
REMARK   39  A    between atoms: _92  and  _94
REMARK   40  A    between atoms: _94  and  _95
REMARK   41  A    between atoms: _94  and  _97
REMARK   42  A    between atoms: _100  and  _102
REMARK   43  A    between atoms: _102  and  _103
REMARK   44  A    between atoms: _102  and  _105
REMARK   45  A    between atoms: _105  and  _106
REMARK   46  A    between atoms: _109  and  _111
REMARK   47  A    between atoms: _111  and  _112
REMARK   48  A    between atoms: _111  and  _114
REMARK   49  A    between atoms: _114  and  _115
REMARK   50  A    between atoms: _115  and  _116
REMARK   51  A    between atoms: _116  and  _117
REMARK   52  A    between atoms: _117  and  _118
REMARK   53  A    between atoms: _122  and  _124
REMARK   54  A    between atoms: _124  and  _125
REMARK   55  A    between atoms: _124  and  _127
REMARK   56  A    between atoms: _127  and  _128
REMARK   57  A    between atoms: _128  and  _129
REMARK   58  A    between atoms: _131  and  _133
REMARK   59  A    between atoms: _133  and  _134
REMARK   60  A    between atoms: _133  and  _136
REMARK   61  A    between atoms: _136  and  _137
REMARK   62  A    between atoms: _140  and  _142
REMARK   63  A    between atoms: _142  and  _143
REMARK   64  A    between atoms: _145  and  _147
REMARK   65  A    between atoms: _147  and  _148
REMARK   66  A    between atoms: _150  and  _152
REMARK   67  A    between atoms: _152  and  _153
REMARK   68  A    between atoms: _152  and  _155
REMARK   69  A    between atoms: _155  and  _156
REMARK   70  A    between atoms: _159  and  _161
REMARK   71  A    between atoms: _161  and  _162
REMARK   72  A    between atoms: _164  and  _166
REMARK   73  A    between atoms: _166  and  _167
REMARK   74  A    between atoms: _169  and  _171
REMARK   75  A    between atoms: _171  and  _172
REMARK   76  A    between atoms: _171  and  _174
REMARK   77  A    between atoms: _174  and  _175
REMARK   78  A    between atoms: _181  and  _183
REMARK   79  A    between atoms: _183  and  _184
REMARK   80  A    between atoms: _183  and  _186
REMARK   81  A    between atoms: _189  and  _191
REMARK   82  A    between atoms: _191  and  _192
REMARK   83  A    between atoms: _191  and  _194
REMARK   84  A    between atoms: _197  and  _199
REMARK   85  A    between atoms: _199  and  _200
REMARK   86  A    between atoms: _199  and  _202
REMARK   87  A    between atoms: _202  and  _203
REMARK   88  A    between atoms: _207  and  _208
REMARK   89  A    between atoms: _213  and  _215
REMARK   90  A    between atoms: _215  and  _216
REMARK   91  A    between atoms: _215  and  _218
REMARK   92  A    between atoms: _218  and  _219
REMARK   93  A    between atoms: _223  and  _224
REMARK   94  A    between atoms: _229  and  _231
REMARK   95  A    between atoms: _231  and  _232
REMARK   96  A    between atoms: _231  and  _234
REMARK   97  A    between atoms: _237  and  _239
REMARK   98  A    between atoms: _239  and  _240
REMARK   99  A    between atoms: _239  and  _242
REMARK  100  A    between atoms: _242  and  _243
REMARK  101  A    between atoms: _248  and  _250
REMARK  102  A    between atoms: _250  and  _251
REMARK  103  A    between atoms: _250  and  _253
REMARK  104  A    between atoms: _253  and  _254
REMARK  105  A    between atoms: _257  and  _259
REMARK  106  A    between atoms: _259  and  _260
REMARK  107  A    between atoms: _259  and  _262
REMARK  108  A    between atoms: _262  and  _263
REMARK  109  A    between atoms: _266  and  _268
REMARK  110  A    between atoms: _268  and  _269
REMARK  111  A    between atoms: _271  and  _273
REMARK  112  A    between atoms: _273  and  _274
REMARK  113  A    between atoms: _273  and  _276
REMARK  114  A    between atoms: _277  and  _278
REMARK  115  A    between atoms: _278  and  _279
REMARK  116  A    between atoms: _288  and  _290
REMARK  117  A    between atoms: _290  and  _291
REMARK  118  A    between atoms: _290  and  _293
REMARK  119  A    between atoms: _293  and  _294
REMARK  120  A    between atoms: _299  and  _301
REMARK  121  A    between atoms: _301  and  _302
REMARK  122  A    between atoms: _301  and  _304
REMARK  123  A    between atoms: _304  and  _305
REMARK  124  A    between atoms: _305  and  _306
REMARK  125  A    between atoms: _306  and  _307
REMARK  126  A    between atoms: _316  and  _318
REMARK  127  A    between atoms: _318  and  _319
REMARK  128  A    between atoms: _318  and  _321
REMARK  129  A    between atoms: _321  and  _322
REMARK  130  A    between atoms: _325  and  _327
REMARK  131  A    between atoms: _327  and  _328
REMARK  132  A    between atoms: _327  and  _330
REMARK  133  A    between atoms: _330  and  _331
REMARK  134  A    between atoms: _334  and  _336
REMARK  135  A    between atoms: _336  and  _337
REMARK  136  A    between atoms: _336  and  _339
REMARK  137  A    between atoms: _339  and  _340
REMARK  138  A    between atoms: _343  and  _345
REMARK  139  A    between atoms: _345  and  _346
REMARK  140  A    between atoms: _345  and  _348
REMARK  141  A    between atoms: _348  and  _349
REMARK  142  A    between atoms: _352  and  _354
REMARK  143  A    between atoms: _354  and  _355
REMARK  144  A    between atoms: _357  and  _359
REMARK  145  A    between atoms: _359  and  _360
REMARK  146  A    between atoms: _363  and  _365
REMARK  147  A    between atoms: _365  and  _366
REMARK  148  A    between atoms: _365  and  _368
REMARK  149  A    between atoms: _368  and  _369
REMARK  150  A    between atoms: _372  and  _374
REMARK  151  A    between atoms: _374  and  _375
REMARK  152  A    between atoms: _374  and  _377
REMARK  153  A    between atoms: _377  and  _378
REMARK  154  A    between atoms: _381  and  _383
REMARK  155  A    between atoms: _383  and  _384
REMARK  156  A    between atoms: _383  and  _386
REMARK  157  A    between atoms: _386  and  _387
REMARK  158  A    between atoms: _390  and  _392
REMARK  159  A    between atoms: _392  and  _393
REMARK  160  A    between atoms: _392  and  _395
REMARK  161  A    between atoms: _398  and  _400
REMARK  162  A    between atoms: _400  and  _401
REMARK  163  A    between atoms: _400  and  _403
REMARK  164  A    between atoms: _403  and  _404
REMARK  165  A    between atoms: _407  and  _409
REMARK  166  A    between atoms: _409  and  _410
REMARK  167  A    between atoms: _409  and  _412
REMARK  168  A    between atoms: _412  and  _413
REMARK  169  A    between atoms: _413  and  _414
REMARK  170  A    between atoms: _414  and  _415
REMARK  171  A    between atoms: _415  and  _416
REMARK  172  A    between atoms: _420  and  _422
REMARK  173  A    between atoms: _422  and  _423
REMARK  174  A    between atoms: _422  and  _425
REMARK  175  A    between atoms: _425  and  _426
REMARK  176  A    between atoms: _426  and  _427
REMARK  177  A    between atoms: _429  and  _431
REMARK  178  A    between atoms: _431  and  _432
REMARK  179  A    between atoms: _431  and  _434
REMARK  180  A    between atoms: _434  and  _435
REMARK  181  A    between atoms: _438  and  _440
REMARK  182  A    between atoms: _440  and  _441
REMARK  183  A    between atoms: _443  and  _445
REMARK  184  A    between atoms: _445  and  _446
REMARK  185  A    between atoms: _448  and  _450
REMARK  186  A    between atoms: _450  and  _451
REMARK  187  A    between atoms: _450  and  _453
REMARK  188  A    between atoms: _453  and  _454
REMARK  189  A    between atoms: _457  and  _459
REMARK  190  A    between atoms: _459  and  _460
REMARK  191  A    between atoms: _462  and  _464
REMARK  192  A    between atoms: _464  and  _465
REMARK  193  A    between atoms: _467  and  _469
REMARK  194  A    between atoms: _469  and  _470
REMARK  195  A    between atoms: _469  and  _472
REMARK  196  A    between atoms: _472  and  _473
REMARK  197  A    between atoms: _479  and  _481
REMARK  198  A    between atoms: _481  and  _482
REMARK  199  A    between atoms: _481  and  _484
REMARK  200  A    between atoms: _487  and  _489
REMARK  201  A    between atoms: _489  and  _490
REMARK  202  A    between atoms: _489  and  _492
REMARK  203  A    between atoms: _495  and  _497
REMARK  204  A    between atoms: _497  and  _498
REMARK  205  A    between atoms: _497  and  _500
REMARK  206  A    between atoms: _500  and  _501
REMARK  207  A    between atoms: _504  and  _506
REMARK  208  A    between atoms: _506  and  _507
REMARK  209  A    between atoms: _506  and  _509
REMARK  210  A    between atoms: _509  and  _510
REMARK  211  A    between atoms: _514  and  _515
REMARK  212  A    between atoms: _520  and  _522
REMARK  213  A    between atoms: _522  and  _523
REMARK  214  A    between atoms: _522  and  _525
REMARK  215  A    between atoms: _528  and  _530
REMARK  216  A    between atoms: _530  and  _531
REMARK  217  A    between atoms: _530  and  _533
REMARK  218  A    between atoms: _533  and  _534
REMARK  219  A    between atoms: _539  and  _541
REMARK  220  A    between atoms: _541  and  _542
REMARK  221  A    between atoms: _541  and  _544
REMARK  222  A    between atoms: _544  and  _545
REMARK  223  A    between atoms: _548  and  _550
REMARK  224  A    between atoms: _550  and  _551
REMARK  225  A    between atoms: _550  and  _553
REMARK  226  A    between atoms: _553  and  _554
REMARK  227  A    between atoms: _557  and  _559
REMARK  228  A    between atoms: _559  and  _560
REMARK  229  A    between atoms: _562  and  _564
REMARK  230  A    between atoms: _564  and  _565
REMARK  231  A    between atoms: _564  and  _567
REMARK  232  A    between atoms: _567  and  _568
REMARK  233  A    between atoms: _568  and  _569
REMARK  234  A    between atoms: _569  and  _570
REMARK  235  A    between atoms: _579  and  _581
REMARK  236  A    between atoms: _581  and  _582
REMARK  237  A    between atoms: _581  and  _584
REMARK  238  A    between atoms: _584  and  _585
REMARK                            x       y       z     vdW  Elec       q    Type
REMARK                         _______ _______ _______ _____ _____    ______ ____
ROOT
ATOM      1  O   HOH     1      17.777  27.365   8.739  0.00  0.00    +0.000 OA
ENDROOT
TORSDOF 0
