REMARK  Name = ../refined-set-2016/3hzk/3hzk_pocket.pdb
REMARK  146 active torsions:
REMARK  status: ('A' for Active; 'I' for Inactive)
REMARK    1  A    between atoms: _1  and  _3
REMARK    2  A    between atoms: _3  and  _4
REMARK    3  A    between atoms: _3  and  _6
REMARK    4  A    between atoms: _6  and  _7
REMARK    5  A    between atoms: _10  and  _12
REMARK    6  A    between atoms: _12  and  _13
REMARK    7  A    between atoms: _12  and  _15
REMARK    8  A    between atoms: _15  and  _16
REMARK    9  A    between atoms: _19  and  _21
REMARK   10  A    between atoms: _21  and  _22
REMARK   11  A    between atoms: _21  and  _24
REMARK   12  A    between atoms: _24  and  _25
REMARK   13  A    between atoms: _30  and  _32
REMARK   14  A    between atoms: _32  and  _33
REMARK   15  A    between atoms: _32  and  _35
REMARK   16  A    between atoms: _35  and  _36
REMARK   17  A    between atoms: _36  and  _37
REMARK   18  A    between atoms: _37  and  _38
REMARK   19  A    between atoms: _47  and  _49
REMARK   20  A    between atoms: _49  and  _50
REMARK   21  A    between atoms: _49  and  _52
REMARK   22  A    between atoms: _52  and  _53
REMARK   23  A    between atoms: _56  and  _58
REMARK   24  A    between atoms: _58  and  _59
REMARK   25  A    between atoms: _58  and  _61
REMARK   26  A    between atoms: _61  and  _62
REMARK   27  A    between atoms: _62  and  _63
REMARK   28  A    between atoms: _63  and  _64
REMARK   29  A    between atoms: _64  and  _65
REMARK   30  A    between atoms: _69  and  _71
REMARK   31  A    between atoms: _71  and  _72
REMARK   32  A    between atoms: _71  and  _74
REMARK   33  A    between atoms: _74  and  _75
REMARK   34  A    between atoms: _80  and  _81
REMARK   35  A    between atoms: _83  and  _85
REMARK   36  A    between atoms: _85  and  _86
REMARK   37  A    between atoms: _85  and  _88
REMARK   38  A    between atoms: _88  and  _89
REMARK   39  A    between atoms: _99  and  _101
REMARK   40  A    between atoms: _101  and  _102
REMARK   41  A    between atoms: _101  and  _104
REMARK   42  A    between atoms: _104  and  _105
REMARK   43  A    between atoms: _105  and  _106
REMARK   44  A    between atoms: _106  and  _107
REMARK   45  A    between atoms: _107  and  _108
REMARK   46  A    between atoms: _112  and  _114
REMARK   47  A    between atoms: _114  and  _115
REMARK   48  A    between atoms: _114  and  _117
REMARK   49  A    between atoms: _117  and  _118
REMARK   50  A    between atoms: _118  and  _119
REMARK   51  A    between atoms: _124  and  _126
REMARK   52  A    between atoms: _126  and  _127
REMARK   53  A    between atoms: _126  and  _129
REMARK   54  A    between atoms: _129  and  _130
REMARK   55  A    between atoms: _132  and  _134
REMARK   56  A    between atoms: _134  and  _135
REMARK   57  A    between atoms: _134  and  _137
REMARK   58  A    between atoms: _137  and  _138
REMARK   59  A    between atoms: _143  and  _144
REMARK   60  A    between atoms: _146  and  _148
REMARK   61  A    between atoms: _148  and  _149
REMARK   62  A    between atoms: _148  and  _151
REMARK   63  A    between atoms: _151  and  _152
REMARK   64  A    between atoms: _157  and  _159
REMARK   65  A    between atoms: _159  and  _160
REMARK   66  A    between atoms: _159  and  _162
REMARK   67  A    between atoms: _162  and  _163
REMARK   68  A    between atoms: _166  and  _168
REMARK   69  A    between atoms: _168  and  _169
REMARK   70  A    between atoms: _168  and  _171
REMARK   71  A    between atoms: _171  and  _172
REMARK   72  A    between atoms: _172  and  _173
REMARK   73  A    between atoms: _173  and  _174
REMARK   74  A    between atoms: _183  and  _185
REMARK   75  A    between atoms: _185  and  _186
REMARK   76  A    between atoms: _185  and  _188
REMARK   77  A    between atoms: _188  and  _189
REMARK   78  A    between atoms: _194  and  _195
REMARK   79  A    between atoms: _197  and  _199
REMARK   80  A    between atoms: _199  and  _200
REMARK   81  A    between atoms: _199  and  _202
REMARK   82  A    between atoms: _202  and  _203
REMARK   83  A    between atoms: _209  and  _211
REMARK   84  A    between atoms: _211  and  _212
REMARK   85  A    between atoms: _211  and  _214
REMARK   86  A    between atoms: _214  and  _215
REMARK   87  A    between atoms: _215  and  _216
REMARK   88  A    between atoms: _216  and  _217
REMARK   89  A    between atoms: _226  and  _228
REMARK   90  A    between atoms: _228  and  _229
REMARK   91  A    between atoms: _228  and  _231
REMARK   92  A    between atoms: _231  and  _232
REMARK   93  A    between atoms: _237  and  _239
REMARK   94  A    between atoms: _239  and  _240
REMARK   95  A    between atoms: _243  and  _245
REMARK   96  A    between atoms: _245  and  _246
REMARK   97  A    between atoms: _245  and  _248
REMARK   98  A    between atoms: _248  and  _249
REMARK   99  A    between atoms: _249  and  _250
REMARK  100  A    between atoms: _250  and  _251
REMARK  101  A    between atoms: _251  and  _252
REMARK  102  A    between atoms: _256  and  _258
REMARK  103  A    between atoms: _258  and  _259
REMARK  104  A    between atoms: _258  and  _261
REMARK  105  A    between atoms: _261  and  _262
REMARK  106  A    between atoms: _265  and  _267
REMARK  107  A    between atoms: _267  and  _268
REMARK  108  A    between atoms: _267  and  _270
REMARK  109  A    between atoms: _270  and  _271
REMARK  110  A    between atoms: _271  and  _272
REMARK  111  A    between atoms: _272  and  _274
REMARK  112  A    between atoms: _275  and  _277
REMARK  113  A    between atoms: _277  and  _278
REMARK  114  A    between atoms: _277  and  _280
REMARK  115  A    between atoms: _280  and  _281
REMARK  116  A    between atoms: _284  and  _286
REMARK  117  A    between atoms: _286  and  _287
REMARK  118  A    between atoms: _286  and  _289
REMARK  119  A    between atoms: _289  and  _290
REMARK  120  A    between atoms: _293  and  _295
REMARK  121  A    between atoms: _295  and  _296
REMARK  122  A    between atoms: _295  and  _298
REMARK  123  A    between atoms: _298  and  _299
REMARK  124  A    between atoms: _305  and  _306
REMARK  125  A    between atoms: _311  and  _313
REMARK  126  A    between atoms: _313  and  _314
REMARK  127  A    between atoms: _316  and  _318
REMARK  128  A    between atoms: _318  and  _319
REMARK  129  A    between atoms: _318  and  _321
REMARK  130  A    between atoms: _321  and  _322
REMARK  131  A    between atoms: _324  and  _326
REMARK  132  A    between atoms: _326  and  _327
REMARK  133  A    between atoms: _326  and  _329
REMARK  134  A    between atoms: _329  and  _330
REMARK  135  A    between atoms: _335  and  _336
REMARK  136  A    between atoms: _338  and  _340
REMARK  137  A    between atoms: _340  and  _341
REMARK  138  A    between atoms: _340  and  _343
REMARK  139  A    between atoms: _343  and  _344
REMARK  140  A    between atoms: _349  and  _350
REMARK  141  A    between atoms: _352  and  _354
REMARK  142  A    between atoms: _354  and  _355
REMARK  143  A    between atoms: _354  and  _357
REMARK  144  A    between atoms: _357  and  _358
REMARK  145  A    between atoms: _361  and  _363
REMARK  146  A    between atoms: _363  and  _364
REMARK                            x       y       z     vdW  Elec       q    Type
REMARK                         _______ _______ _______ _____ _____    ______ ____
ROOT
ATOM      1  CA  LEU A   2       4.427  13.246  -1.228  0.00  0.00    +0.149 C 
ENDROOT
BRANCH   1   4
ATOM      2  C   LEU A   1       5.183  12.301   0.903  0.00  0.00    +0.238 C 
ATOM      3  O   LEU A   1       4.571  11.245   0.736  0.00  0.00    -0.274 OA
ATOM      4  N   LEU A   2       5.224  13.271  -0.005  0.00  0.00    -0.297 N 
ATOM      5  H   LEU A   2       5.851  14.083   0.163  0.00  0.00    +0.150 HD
BRANCH   2   6
ATOM      6  CA  LEU A   1       5.956  12.573   2.193  0.00  0.00    +0.145 C 
BRANCH   6   7
ATOM      7  N   LEU A   1       6.303  13.985   2.264  0.00  0.00    -0.238 NA
ATOM      8  H   LEU A   1       5.564  14.673   2.511  0.00  0.00    +0.142 HD
ENDBRANCH   6   7
BRANCH   6   9
ATOM      9  CB  LEU A   1       5.114  12.183   3.409  0.00  0.00    +0.026 C 
BRANCH   9  10
ATOM     10  CG  LEU A   1       5.684  12.586   4.771  0.00  0.00    +0.002 C 
ATOM     11  CD2 LEU A   1       4.782  12.109   5.894  0.00  0.00    +0.000 C 
ATOM     12  CD1 LEU A   1       7.083  12.034   4.941  0.00  0.00    +0.000 C 
ENDBRANCH   9  10
ENDBRANCH   6   9
ENDBRANCH   2   6
ENDBRANCH   1   4
BRANCH   1  13
ATOM     13  C   LEU A   2       5.166  12.681  -2.448  0.00  0.00    +0.241 C 
ATOM     14  O   LEU A   2       6.190  13.215  -2.857  0.00  0.00    -0.273 OA
ATOM     15  N   ASN A   3       4.640  11.604  -3.023  0.00  0.00    -0.298 N 
ATOM     16  H   ASN A   3       3.855  11.111  -2.551  0.00  0.00    +0.150 HD
BRANCH  15  17
ATOM     17  CA  ASN A   3       5.134  11.095  -4.299  0.00  0.00    +0.146 C 
BRANCH  17  18
ATOM     18  C   ASN A   3       4.459  11.826  -5.462  0.00  0.00    +0.227 C 
ATOM     19  O   ASN A   3       3.299  11.564  -5.786  0.00  0.00    -0.286 OA
ENDBRANCH  17  18
BRANCH  17  20
ATOM     20  CB  ASN A   3       4.891   9.585  -4.408  0.00  0.00    +0.112 C 
BRANCH  20  21
ATOM     21  CG  ASN A   3       5.477   8.985  -5.680  0.00  0.00    +0.222 C 
ATOM     22  ND2 ASN A   3       6.303   7.955  -5.520  0.00  0.00    -0.329 N 
ATOM     23 HD21 ASN A   3       6.520   7.606  -4.565  0.00  0.00    +0.145 HD
ATOM     24 HD22 ASN A   3       6.732   7.499  -6.350  0.00  0.00    +0.145 HD
ATOM     25  OD1 ASN A   3       5.187   9.438  -6.791  0.00  0.00    -0.275 OA
ENDBRANCH  20  21
ENDBRANCH  17  20
ENDBRANCH  15  17
ENDBRANCH   1  13
BRANCH   1  26
ATOM     26  CB  LEU A   2       3.955  14.666  -1.547  0.00  0.00    +0.029 C 
BRANCH  26  27
ATOM     27  CG  LEU A   2       3.272  14.820  -2.899  0.00  0.00    +0.002 C 
ATOM     28  CD2 LEU A   2       1.928  14.106  -2.889  0.00  0.00    +0.000 C 
ATOM     29  CD1 LEU A   2       3.108  16.290  -3.229  0.00  0.00    +0.000 C 
ENDBRANCH  26  27
ENDBRANCH   1  26
TORSDOF 12
REMARK  Name = ../refined-set-2016/3hzk/3hzk_pocket.pdb
REMARK  146 active torsions:
REMARK  status: ('A' for Active; 'I' for Inactive)
REMARK    1  A    between atoms: _1  and  _3
REMARK    2  A    between atoms: _3  and  _4
REMARK    3  A    between atoms: _3  and  _6
REMARK    4  A    between atoms: _6  and  _7
REMARK    5  A    between atoms: _10  and  _12
REMARK    6  A    between atoms: _12  and  _13
REMARK    7  A    between atoms: _12  and  _15
REMARK    8  A    between atoms: _15  and  _16
REMARK    9  A    between atoms: _19  and  _21
REMARK   10  A    between atoms: _21  and  _22
REMARK   11  A    between atoms: _21  and  _24
REMARK   12  A    between atoms: _24  and  _25
REMARK   13  A    between atoms: _30  and  _32
REMARK   14  A    between atoms: _32  and  _33
REMARK   15  A    between atoms: _32  and  _35
REMARK   16  A    between atoms: _35  and  _36
REMARK   17  A    between atoms: _36  and  _37
REMARK   18  A    between atoms: _37  and  _38
REMARK   19  A    between atoms: _47  and  _49
REMARK   20  A    between atoms: _49  and  _50
REMARK   21  A    between atoms: _49  and  _52
REMARK   22  A    between atoms: _52  and  _53
REMARK   23  A    between atoms: _56  and  _58
REMARK   24  A    between atoms: _58  and  _59
REMARK   25  A    between atoms: _58  and  _61
REMARK   26  A    between atoms: _61  and  _62
REMARK   27  A    between atoms: _62  and  _63
REMARK   28  A    between atoms: _63  and  _64
REMARK   29  A    between atoms: _64  and  _65
REMARK   30  A    between atoms: _69  and  _71
REMARK   31  A    between atoms: _71  and  _72
REMARK   32  A    between atoms: _71  and  _74
REMARK   33  A    between atoms: _74  and  _75
REMARK   34  A    between atoms: _80  and  _81
REMARK   35  A    between atoms: _83  and  _85
REMARK   36  A    between atoms: _85  and  _86
REMARK   37  A    between atoms: _85  and  _88
REMARK   38  A    between atoms: _88  and  _89
REMARK   39  A    between atoms: _99  and  _101
REMARK   40  A    between atoms: _101  and  _102
REMARK   41  A    between atoms: _101  and  _104
REMARK   42  A    between atoms: _104  and  _105
REMARK   43  A    between atoms: _105  and  _106
REMARK   44  A    between atoms: _106  and  _107
REMARK   45  A    between atoms: _107  and  _108
REMARK   46  A    between atoms: _112  and  _114
REMARK   47  A    between atoms: _114  and  _115
REMARK   48  A    between atoms: _114  and  _117
REMARK   49  A    between atoms: _117  and  _118
REMARK   50  A    between atoms: _118  and  _119
REMARK   51  A    between atoms: _124  and  _126
REMARK   52  A    between atoms: _126  and  _127
REMARK   53  A    between atoms: _126  and  _129
REMARK   54  A    between atoms: _129  and  _130
REMARK   55  A    between atoms: _132  and  _134
REMARK   56  A    between atoms: _134  and  _135
REMARK   57  A    between atoms: _134  and  _137
REMARK   58  A    between atoms: _137  and  _138
REMARK   59  A    between atoms: _143  and  _144
REMARK   60  A    between atoms: _146  and  _148
REMARK   61  A    between atoms: _148  and  _149
REMARK   62  A    between atoms: _148  and  _151
REMARK   63  A    between atoms: _151  and  _152
REMARK   64  A    between atoms: _157  and  _159
REMARK   65  A    between atoms: _159  and  _160
REMARK   66  A    between atoms: _159  and  _162
REMARK   67  A    between atoms: _162  and  _163
REMARK   68  A    between atoms: _166  and  _168
REMARK   69  A    between atoms: _168  and  _169
REMARK   70  A    between atoms: _168  and  _171
REMARK   71  A    between atoms: _171  and  _172
REMARK   72  A    between atoms: _172  and  _173
REMARK   73  A    between atoms: _173  and  _174
REMARK   74  A    between atoms: _183  and  _185
REMARK   75  A    between atoms: _185  and  _186
REMARK   76  A    between atoms: _185  and  _188
REMARK   77  A    between atoms: _188  and  _189
REMARK   78  A    between atoms: _194  and  _195
REMARK   79  A    between atoms: _197  and  _199
REMARK   80  A    between atoms: _199  and  _200
REMARK   81  A    between atoms: _199  and  _202
REMARK   82  A    between atoms: _202  and  _203
REMARK   83  A    between atoms: _209  and  _211
REMARK   84  A    between atoms: _211  and  _212
REMARK   85  A    between atoms: _211  and  _214
REMARK   86  A    between atoms: _214  and  _215
REMARK   87  A    between atoms: _215  and  _216
REMARK   88  A    between atoms: _216  and  _217
REMARK   89  A    between atoms: _226  and  _228
REMARK   90  A    between atoms: _228  and  _229
REMARK   91  A    between atoms: _228  and  _231
REMARK   92  A    between atoms: _231  and  _232
REMARK   93  A    between atoms: _237  and  _239
REMARK   94  A    between atoms: _239  and  _240
REMARK   95  A    between atoms: _243  and  _245
REMARK   96  A    between atoms: _245  and  _246
REMARK   97  A    between atoms: _245  and  _248
REMARK   98  A    between atoms: _248  and  _249
REMARK   99  A    between atoms: _249  and  _250
REMARK  100  A    between atoms: _250  and  _251
REMARK  101  A    between atoms: _251  and  _252
REMARK  102  A    between atoms: _256  and  _258
REMARK  103  A    between atoms: _258  and  _259
REMARK  104  A    between atoms: _258  and  _261
REMARK  105  A    between atoms: _261  and  _262
REMARK  106  A    between atoms: _265  and  _267
REMARK  107  A    between atoms: _267  and  _268
REMARK  108  A    between atoms: _267  and  _270
REMARK  109  A    between atoms: _270  and  _271
REMARK  110  A    between atoms: _271  and  _272
REMARK  111  A    between atoms: _272  and  _274
REMARK  112  A    between atoms: _275  and  _277
REMARK  113  A    between atoms: _277  and  _278
REMARK  114  A    between atoms: _277  and  _280
REMARK  115  A    between atoms: _280  and  _281
REMARK  116  A    between atoms: _284  and  _286
REMARK  117  A    between atoms: _286  and  _287
REMARK  118  A    between atoms: _286  and  _289
REMARK  119  A    between atoms: _289  and  _290
REMARK  120  A    between atoms: _293  and  _295
REMARK  121  A    between atoms: _295  and  _296
REMARK  122  A    between atoms: _295  and  _298
REMARK  123  A    between atoms: _298  and  _299
REMARK  124  A    between atoms: _305  and  _306
REMARK  125  A    between atoms: _311  and  _313
REMARK  126  A    between atoms: _313  and  _314
REMARK  127  A    between atoms: _316  and  _318
REMARK  128  A    between atoms: _318  and  _319
REMARK  129  A    between atoms: _318  and  _321
REMARK  130  A    between atoms: _321  and  _322
REMARK  131  A    between atoms: _324  and  _326
REMARK  132  A    between atoms: _326  and  _327
REMARK  133  A    between atoms: _326  and  _329
REMARK  134  A    between atoms: _329  and  _330
REMARK  135  A    between atoms: _335  and  _336
REMARK  136  A    between atoms: _338  and  _340
REMARK  137  A    between atoms: _340  and  _341
REMARK  138  A    between atoms: _340  and  _343
REMARK  139  A    between atoms: _343  and  _344
REMARK  140  A    between atoms: _349  and  _350
REMARK  141  A    between atoms: _352  and  _354
REMARK  142  A    between atoms: _354  and  _355
REMARK  143  A    between atoms: _354  and  _357
REMARK  144  A    between atoms: _357  and  _358
REMARK  145  A    between atoms: _361  and  _363
REMARK  146  A    between atoms: _363  and  _364
REMARK                            x       y       z     vdW  Elec       q    Type
REMARK                         _______ _______ _______ _____ _____    ______ ____
ROOT
ATOM      1  CA  ARG A   1       4.169  10.784  -9.638  0.00  0.00    +0.145 C 
ENDROOT
BRANCH   1   2
ATOM      2  C   ARG A   1       2.774  10.226  -9.381  0.00  0.00    +0.238 C 
ATOM      3  N   THR A   2       2.572   9.668  -8.190  0.00  0.00    -0.296 N 
ATOM      4  H   THR A   2       3.329   9.707  -7.477  0.00  0.00    +0.150 HD
ATOM      5  O   ARG A   1       1.896  10.309 -10.241  0.00  0.00    -0.274 OA
BRANCH   3   6
ATOM      6  CA  THR A   2       1.319   9.005  -7.859  0.00  0.00    +0.164 C 
BRANCH   6   7
ATOM      7  CB  THR A   2       1.559   7.796  -6.957  0.00  0.00    +0.136 C 
ATOM      8  CG2 THR A   2       2.526   6.822  -7.614  0.00  0.00    +0.034 C 
BRANCH   7   9
ATOM      9  OG1 THR A   2       2.114   8.241  -5.712  0.00  0.00    -0.382 OA
ATOM     10  HG1 THR A   2       2.972   8.706  -5.882  0.00  0.00    +0.210 HD
ENDBRANCH   7   9
ENDBRANCH   6   7
BRANCH   6  11
ATOM     11  C   THR A   2       0.365   9.946  -7.138  0.00  0.00    +0.229 C 
ATOM     12  O   THR A   2      -0.820   9.655  -7.002  0.00  0.00    -0.286 OA
ENDBRANCH   6  11
ENDBRANCH   3   6
ENDBRANCH   1   2
BRANCH   1  13
ATOM     13  N   ARG A   1       4.602  11.621  -8.528  0.00  0.00    -0.238 NA
ATOM     14  H   ARG A   1       5.346  11.273  -7.890  0.00  0.00    +0.142 HD
ENDBRANCH   1  13
BRANCH   1  15
ATOM     15  CB  ARG A   1       5.166   9.642  -9.854  0.00  0.00    +0.030 C 
BRANCH  15  16
ATOM     16  CG  ARG A   1       4.930   8.800 -11.100  0.00  0.00    +0.045 C 
BRANCH  16  17
ATOM     17  CD  ARG A   1       5.793   7.541 -11.069  0.00  0.00    +0.174 C 
BRANCH  17  18
ATOM     18  NE  ARG A   1       5.632   6.801  -9.815  0.00  0.00    -0.265 N 
ATOM     19  CZ  ARG A   1       6.526   6.777  -8.827  0.00  0.00    +0.342 C 
ATOM     20  NH2 ARG A   1       6.280   6.081  -7.723  0.00  0.00    -0.292 N 
ATOM     21 HH21 ARG A   1       6.979   6.063  -6.953  0.00  0.00    +0.255 HD
ATOM     22 HH22 ARG A   1       5.389   5.554  -7.629  0.00  0.00    +0.255 HD
ATOM     23  NH1 ARG A   1       7.669   7.443  -8.936  0.00  0.00    -0.292 N 
ATOM     24 HH11 ARG A   1       8.361   7.419  -8.160  0.00  0.00    +0.255 HD
ATOM     25 HH12 ARG A   1       7.873   7.989  -9.797  0.00  0.00    +0.255 HD
ATOM     26  HE  ARG A   1       4.756   6.255  -9.686  0.00  0.00    +0.259 HD
ENDBRANCH  17  18
ENDBRANCH  16  17
ENDBRANCH  15  16
ENDBRANCH   1  15
TORSDOF 10
REMARK  Name = ../refined-set-2016/3hzk/3hzk_pocket.pdb
REMARK  146 active torsions:
REMARK  status: ('A' for Active; 'I' for Inactive)
REMARK    1  A    between atoms: _1  and  _3
REMARK    2  A    between atoms: _3  and  _4
REMARK    3  A    between atoms: _3  and  _6
REMARK    4  A    between atoms: _6  and  _7
REMARK    5  A    between atoms: _10  and  _12
REMARK    6  A    between atoms: _12  and  _13
REMARK    7  A    between atoms: _12  and  _15
REMARK    8  A    between atoms: _15  and  _16
REMARK    9  A    between atoms: _19  and  _21
REMARK   10  A    between atoms: _21  and  _22
REMARK   11  A    between atoms: _21  and  _24
REMARK   12  A    between atoms: _24  and  _25
REMARK   13  A    between atoms: _30  and  _32
REMARK   14  A    between atoms: _32  and  _33
REMARK   15  A    between atoms: _32  and  _35
REMARK   16  A    between atoms: _35  and  _36
REMARK   17  A    between atoms: _36  and  _37
REMARK   18  A    between atoms: _37  and  _38
REMARK   19  A    between atoms: _47  and  _49
REMARK   20  A    between atoms: _49  and  _50
REMARK   21  A    between atoms: _49  and  _52
REMARK   22  A    between atoms: _52  and  _53
REMARK   23  A    between atoms: _56  and  _58
REMARK   24  A    between atoms: _58  and  _59
REMARK   25  A    between atoms: _58  and  _61
REMARK   26  A    between atoms: _61  and  _62
REMARK   27  A    between atoms: _62  and  _63
REMARK   28  A    between atoms: _63  and  _64
REMARK   29  A    between atoms: _64  and  _65
REMARK   30  A    between atoms: _69  and  _71
REMARK   31  A    between atoms: _71  and  _72
REMARK   32  A    between atoms: _71  and  _74
REMARK   33  A    between atoms: _74  and  _75
REMARK   34  A    between atoms: _80  and  _81
REMARK   35  A    between atoms: _83  and  _85
REMARK   36  A    between atoms: _85  and  _86
REMARK   37  A    between atoms: _85  and  _88
REMARK   38  A    between atoms: _88  and  _89
REMARK   39  A    between atoms: _99  and  _101
REMARK   40  A    between atoms: _101  and  _102
REMARK   41  A    between atoms: _101  and  _104
REMARK   42  A    between atoms: _104  and  _105
REMARK   43  A    between atoms: _105  and  _106
REMARK   44  A    between atoms: _106  and  _107
REMARK   45  A    between atoms: _107  and  _108
REMARK   46  A    between atoms: _112  and  _114
REMARK   47  A    between atoms: _114  and  _115
REMARK   48  A    between atoms: _114  and  _117
REMARK   49  A    between atoms: _117  and  _118
REMARK   50  A    between atoms: _118  and  _119
REMARK   51  A    between atoms: _124  and  _126
REMARK   52  A    between atoms: _126  and  _127
REMARK   53  A    between atoms: _126  and  _129
REMARK   54  A    between atoms: _129  and  _130
REMARK   55  A    between atoms: _132  and  _134
REMARK   56  A    between atoms: _134  and  _135
REMARK   57  A    between atoms: _134  and  _137
REMARK   58  A    between atoms: _137  and  _138
REMARK   59  A    between atoms: _143  and  _144
REMARK   60  A    between atoms: _146  and  _148
REMARK   61  A    between atoms: _148  and  _149
REMARK   62  A    between atoms: _148  and  _151
REMARK   63  A    between atoms: _151  and  _152
REMARK   64  A    between atoms: _157  and  _159
REMARK   65  A    between atoms: _159  and  _160
REMARK   66  A    between atoms: _159  and  _162
REMARK   67  A    between atoms: _162  and  _163
REMARK   68  A    between atoms: _166  and  _168
REMARK   69  A    between atoms: _168  and  _169
REMARK   70  A    between atoms: _168  and  _171
REMARK   71  A    between atoms: _171  and  _172
REMARK   72  A    between atoms: _172  and  _173
REMARK   73  A    between atoms: _173  and  _174
REMARK   74  A    between atoms: _183  and  _185
REMARK   75  A    between atoms: _185  and  _186
REMARK   76  A    between atoms: _185  and  _188
REMARK   77  A    between atoms: _188  and  _189
REMARK   78  A    between atoms: _194  and  _195
REMARK   79  A    between atoms: _197  and  _199
REMARK   80  A    between atoms: _199  and  _200
REMARK   81  A    between atoms: _199  and  _202
REMARK   82  A    between atoms: _202  and  _203
REMARK   83  A    between atoms: _209  and  _211
REMARK   84  A    between atoms: _211  and  _212
REMARK   85  A    between atoms: _211  and  _214
REMARK   86  A    between atoms: _214  and  _215
REMARK   87  A    between atoms: _215  and  _216
REMARK   88  A    between atoms: _216  and  _217
REMARK   89  A    between atoms: _226  and  _228
REMARK   90  A    between atoms: _228  and  _229
REMARK   91  A    between atoms: _228  and  _231
REMARK   92  A    between atoms: _231  and  _232
REMARK   93  A    between atoms: _237  and  _239
REMARK   94  A    between atoms: _239  and  _240
REMARK   95  A    between atoms: _243  and  _245
REMARK   96  A    between atoms: _245  and  _246
REMARK   97  A    between atoms: _245  and  _248
REMARK   98  A    between atoms: _248  and  _249
REMARK   99  A    between atoms: _249  and  _250
REMARK  100  A    between atoms: _250  and  _251
REMARK  101  A    between atoms: _251  and  _252
REMARK  102  A    between atoms: _256  and  _258
REMARK  103  A    between atoms: _258  and  _259
REMARK  104  A    between atoms: _258  and  _261
REMARK  105  A    between atoms: _261  and  _262
REMARK  106  A    between atoms: _265  and  _267
REMARK  107  A    between atoms: _267  and  _268
REMARK  108  A    between atoms: _267  and  _270
REMARK  109  A    between atoms: _270  and  _271
REMARK  110  A    between atoms: _271  and  _272
REMARK  111  A    between atoms: _272  and  _274
REMARK  112  A    between atoms: _275  and  _277
REMARK  113  A    between atoms: _277  and  _278
REMARK  114  A    between atoms: _277  and  _280
REMARK  115  A    between atoms: _280  and  _281
REMARK  116  A    between atoms: _284  and  _286
REMARK  117  A    between atoms: _286  and  _287
REMARK  118  A    between atoms: _286  and  _289
REMARK  119  A    between atoms: _289  and  _290
REMARK  120  A    between atoms: _293  and  _295
REMARK  121  A    between atoms: _295  and  _296
REMARK  122  A    between atoms: _295  and  _298
REMARK  123  A    between atoms: _298  and  _299
REMARK  124  A    between atoms: _305  and  _306
REMARK  125  A    between atoms: _311  and  _313
REMARK  126  A    between atoms: _313  and  _314
REMARK  127  A    between atoms: _316  and  _318
REMARK  128  A    between atoms: _318  and  _319
REMARK  129  A    between atoms: _318  and  _321
REMARK  130  A    between atoms: _321  and  _322
REMARK  131  A    between atoms: _324  and  _326
REMARK  132  A    between atoms: _326  and  _327
REMARK  133  A    between atoms: _326  and  _329
REMARK  134  A    between atoms: _329  and  _330
REMARK  135  A    between atoms: _335  and  _336
REMARK  136  A    between atoms: _338  and  _340
REMARK  137  A    between atoms: _340  and  _341
REMARK  138  A    between atoms: _340  and  _343
REMARK  139  A    between atoms: _343  and  _344
REMARK  140  A    between atoms: _349  and  _350
REMARK  141  A    between atoms: _352  and  _354
REMARK  142  A    between atoms: _354  and  _355
REMARK  143  A    between atoms: _354  and  _357
REMARK  144  A    between atoms: _357  and  _358
REMARK  145  A    between atoms: _361  and  _363
REMARK  146  A    between atoms: _363  and  _364
REMARK                            x       y       z     vdW  Elec       q    Type
REMARK                         _______ _______ _______ _____ _____    ______ ____
ROOT
ATOM      1  CG  LYS A   1      -0.891   7.775  -3.706  0.00  0.00    -0.000 C 
ENDROOT
BRANCH   1   2
ATOM      2  CB  LYS A   1       0.009   8.476  -2.702  0.00  0.00    +0.025 C 
BRANCH   2   3
ATOM      3  CA  LYS A   1      -0.030  10.012  -2.721  0.00  0.00    +0.133 C 
BRANCH   3   4
ATOM      4  N   LYS A   1       0.309  10.538  -4.043  0.00  0.00    -0.239 NA
ATOM      5  H   LYS A   1       1.083  10.100  -4.582  0.00  0.00    +0.142 HD
ENDBRANCH   3   4
BRANCH   3   6
ATOM      6  C   LYS A   1       0.931  10.538  -1.665  0.00  0.00    +0.224 C 
ATOM      7  O   LYS A   1       2.145  10.608  -1.892  0.00  0.00    -0.287 OA
ENDBRANCH   3   6
ENDBRANCH   2   3
ENDBRANCH   1   2
BRANCH   1   8
ATOM      8  CD  LYS A   1      -2.359   7.857  -3.318  0.00  0.00    -0.024 C 
BRANCH   8   9
ATOM      9  CE  LYS A   1      -3.202   6.889  -4.152  0.00  0.00    -0.086 C 
BRANCH   9  10
ATOM     10  NZ  LYS A   1      -4.678   7.154  -4.024  0.00  0.00    +0.380 N 
ATOM     11  HZ1 LYS A   1      -4.962   7.052  -3.029  0.00  0.00    -0.089 HD
ATOM     12  HZ2 LYS A   1      -4.885   8.121  -4.347  0.00  0.00    -0.089 HD
ATOM     13  HZ3 LYS A   1      -5.203   6.472  -4.608  0.00  0.00    -0.089 HD
ENDBRANCH   9  10
ENDBRANCH   8   9
ENDBRANCH   1   8
TORSDOF 7
REMARK  Name = ../refined-set-2016/3hzk/3hzk_pocket.pdb
REMARK  146 active torsions:
REMARK  status: ('A' for Active; 'I' for Inactive)
REMARK    1  A    between atoms: _1  and  _3
REMARK    2  A    between atoms: _3  and  _4
REMARK    3  A    between atoms: _3  and  _6
REMARK    4  A    between atoms: _6  and  _7
REMARK    5  A    between atoms: _10  and  _12
REMARK    6  A    between atoms: _12  and  _13
REMARK    7  A    between atoms: _12  and  _15
REMARK    8  A    between atoms: _15  and  _16
REMARK    9  A    between atoms: _19  and  _21
REMARK   10  A    between atoms: _21  and  _22
REMARK   11  A    between atoms: _21  and  _24
REMARK   12  A    between atoms: _24  and  _25
REMARK   13  A    between atoms: _30  and  _32
REMARK   14  A    between atoms: _32  and  _33
REMARK   15  A    between atoms: _32  and  _35
REMARK   16  A    between atoms: _35  and  _36
REMARK   17  A    between atoms: _36  and  _37
REMARK   18  A    between atoms: _37  and  _38
REMARK   19  A    between atoms: _47  and  _49
REMARK   20  A    between atoms: _49  and  _50
REMARK   21  A    between atoms: _49  and  _52
REMARK   22  A    between atoms: _52  and  _53
REMARK   23  A    between atoms: _56  and  _58
REMARK   24  A    between atoms: _58  and  _59
REMARK   25  A    between atoms: _58  and  _61
REMARK   26  A    between atoms: _61  and  _62
REMARK   27  A    between atoms: _62  and  _63
REMARK   28  A    between atoms: _63  and  _64
REMARK   29  A    between atoms: _64  and  _65
REMARK   30  A    between atoms: _69  and  _71
REMARK   31  A    between atoms: _71  and  _72
REMARK   32  A    between atoms: _71  and  _74
REMARK   33  A    between atoms: _74  and  _75
REMARK   34  A    between atoms: _80  and  _81
REMARK   35  A    between atoms: _83  and  _85
REMARK   36  A    between atoms: _85  and  _86
REMARK   37  A    between atoms: _85  and  _88
REMARK   38  A    between atoms: _88  and  _89
REMARK   39  A    between atoms: _99  and  _101
REMARK   40  A    between atoms: _101  and  _102
REMARK   41  A    between atoms: _101  and  _104
REMARK   42  A    between atoms: _104  and  _105
REMARK   43  A    between atoms: _105  and  _106
REMARK   44  A    between atoms: _106  and  _107
REMARK   45  A    between atoms: _107  and  _108
REMARK   46  A    between atoms: _112  and  _114
REMARK   47  A    between atoms: _114  and  _115
REMARK   48  A    between atoms: _114  and  _117
REMARK   49  A    between atoms: _117  and  _118
REMARK   50  A    between atoms: _118  and  _119
REMARK   51  A    between atoms: _124  and  _126
REMARK   52  A    between atoms: _126  and  _127
REMARK   53  A    between atoms: _126  and  _129
REMARK   54  A    between atoms: _129  and  _130
REMARK   55  A    between atoms: _132  and  _134
REMARK   56  A    between atoms: _134  and  _135
REMARK   57  A    between atoms: _134  and  _137
REMARK   58  A    between atoms: _137  and  _138
REMARK   59  A    between atoms: _143  and  _144
REMARK   60  A    between atoms: _146  and  _148
REMARK   61  A    between atoms: _148  and  _149
REMARK   62  A    between atoms: _148  and  _151
REMARK   63  A    between atoms: _151  and  _152
REMARK   64  A    between atoms: _157  and  _159
REMARK   65  A    between atoms: _159  and  _160
REMARK   66  A    between atoms: _159  and  _162
REMARK   67  A    between atoms: _162  and  _163
REMARK   68  A    between atoms: _166  and  _168
REMARK   69  A    between atoms: _168  and  _169
REMARK   70  A    between atoms: _168  and  _171
REMARK   71  A    between atoms: _171  and  _172
REMARK   72  A    between atoms: _172  and  _173
REMARK   73  A    between atoms: _173  and  _174
REMARK   74  A    between atoms: _183  and  _185
REMARK   75  A    between atoms: _185  and  _186
REMARK   76  A    between atoms: _185  and  _188
REMARK   77  A    between atoms: _188  and  _189
REMARK   78  A    between atoms: _194  and  _195
REMARK   79  A    between atoms: _197  and  _199
REMARK   80  A    between atoms: _199  and  _200
REMARK   81  A    between atoms: _199  and  _202
REMARK   82  A    between atoms: _202  and  _203
REMARK   83  A    between atoms: _209  and  _211
REMARK   84  A    between atoms: _211  and  _212
REMARK   85  A    between atoms: _211  and  _214
REMARK   86  A    between atoms: _214  and  _215
REMARK   87  A    between atoms: _215  and  _216
REMARK   88  A    between atoms: _216  and  _217
REMARK   89  A    between atoms: _226  and  _228
REMARK   90  A    between atoms: _228  and  _229
REMARK   91  A    between atoms: _228  and  _231
REMARK   92  A    between atoms: _231  and  _232
REMARK   93  A    between atoms: _237  and  _239
REMARK   94  A    between atoms: _239  and  _240
REMARK   95  A    between atoms: _243  and  _245
REMARK   96  A    between atoms: _245  and  _246
REMARK   97  A    between atoms: _245  and  _248
REMARK   98  A    between atoms: _248  and  _249
REMARK   99  A    between atoms: _249  and  _250
REMARK  100  A    between atoms: _250  and  _251
REMARK  101  A    between atoms: _251  and  _252
REMARK  102  A    between atoms: _256  and  _258
REMARK  103  A    between atoms: _258  and  _259
REMARK  104  A    between atoms: _258  and  _261
REMARK  105  A    between atoms: _261  and  _262
REMARK  106  A    between atoms: _265  and  _267
REMARK  107  A    between atoms: _267  and  _268
REMARK  108  A    between atoms: _267  and  _270
REMARK  109  A    between atoms: _270  and  _271
REMARK  110  A    between atoms: _271  and  _272
REMARK  111  A    between atoms: _272  and  _274
REMARK  112  A    between atoms: _275  and  _277
REMARK  113  A    between atoms: _277  and  _278
REMARK  114  A    between atoms: _277  and  _280
REMARK  115  A    between atoms: _280  and  _281
REMARK  116  A    between atoms: _284  and  _286
REMARK  117  A    between atoms: _286  and  _287
REMARK  118  A    between atoms: _286  and  _289
REMARK  119  A    between atoms: _289  and  _290
REMARK  120  A    between atoms: _293  and  _295
REMARK  121  A    between atoms: _295  and  _296
REMARK  122  A    between atoms: _295  and  _298
REMARK  123  A    between atoms: _298  and  _299
REMARK  124  A    between atoms: _305  and  _306
REMARK  125  A    between atoms: _311  and  _313
REMARK  126  A    between atoms: _313  and  _314
REMARK  127  A    between atoms: _316  and  _318
REMARK  128  A    between atoms: _318  and  _319
REMARK  129  A    between atoms: _318  and  _321
REMARK  130  A    between atoms: _321  and  _322
REMARK  131  A    between atoms: _324  and  _326
REMARK  132  A    between atoms: _326  and  _327
REMARK  133  A    between atoms: _326  and  _329
REMARK  134  A    between atoms: _329  and  _330
REMARK  135  A    between atoms: _335  and  _336
REMARK  136  A    between atoms: _338  and  _340
REMARK  137  A    between atoms: _340  and  _341
REMARK  138  A    between atoms: _340  and  _343
REMARK  139  A    between atoms: _343  and  _344
REMARK  140  A    between atoms: _349  and  _350
REMARK  141  A    between atoms: _352  and  _354
REMARK  142  A    between atoms: _354  and  _355
REMARK  143  A    between atoms: _354  and  _357
REMARK  144  A    between atoms: _357  and  _358
REMARK  145  A    between atoms: _361  and  _363
REMARK  146  A    between atoms: _363  and  _364
REMARK                            x       y       z     vdW  Elec       q    Type
REMARK                         _______ _______ _______ _____ _____    ______ ____
ROOT
ATOM      1  CG  TYR A   1       4.131   7.031   0.803  0.00  0.00    -0.020 A 
ATOM      2  CD2 TYR A   1       4.211   5.650   0.652  0.00  0.00    -0.001 A 
ATOM      3  CE2 TYR A   1       4.239   5.066  -0.602  0.00  0.00    +0.036 A 
ATOM      4  CZ  TYR A   1       4.180   5.860  -1.729  0.00  0.00    +0.134 A 
ATOM      5  CE1 TYR A   1       4.096   7.230  -1.610  0.00  0.00    +0.036 A 
ATOM      6  CD1 TYR A   1       4.075   7.812  -0.350  0.00  0.00    -0.001 A 
ENDROOT
BRANCH   4   7
ATOM      7  OH  TYR A   1       4.211   5.275  -2.978  0.00  0.00    -0.506 OA
ATOM      8  HH  TYR A   1       4.272   4.292  -2.879  0.00  0.00    +0.292 HD
ENDBRANCH   4   7
BRANCH   1   9
ATOM      9  CB  TYR A   1       4.107   7.666   2.186  0.00  0.00    +0.051 C 
BRANCH   9  10
ATOM     10  CA  TYR A   1       2.766   8.299   2.573  0.00  0.00    +0.137 C 
BRANCH  10  11
ATOM     11  N   TYR A   1       2.540   9.515   1.799  0.00  0.00    -0.239 NA
ATOM     12  H   TYR A   1       3.358  10.048   1.441  0.00  0.00    +0.142 HD
ENDBRANCH  10  11
BRANCH  10  13
ATOM     13  C   TYR A   1       2.730   8.598   4.075  0.00  0.00    +0.224 C 
ATOM     14  O   TYR A   1       3.767   8.643   4.735  0.00  0.00    -0.287 OA
ENDBRANCH  10  13
ENDBRANCH   9  10
ENDBRANCH   1   9
TORSDOF 5
REMARK  Name = ../refined-set-2016/3hzk/3hzk_pocket.pdb
REMARK  146 active torsions:
REMARK  status: ('A' for Active; 'I' for Inactive)
REMARK    1  A    between atoms: _1  and  _3
REMARK    2  A    between atoms: _3  and  _4
REMARK    3  A    between atoms: _3  and  _6
REMARK    4  A    between atoms: _6  and  _7
REMARK    5  A    between atoms: _10  and  _12
REMARK    6  A    between atoms: _12  and  _13
REMARK    7  A    between atoms: _12  and  _15
REMARK    8  A    between atoms: _15  and  _16
REMARK    9  A    between atoms: _19  and  _21
REMARK   10  A    between atoms: _21  and  _22
REMARK   11  A    between atoms: _21  and  _24
REMARK   12  A    between atoms: _24  and  _25
REMARK   13  A    between atoms: _30  and  _32
REMARK   14  A    between atoms: _32  and  _33
REMARK   15  A    between atoms: _32  and  _35
REMARK   16  A    between atoms: _35  and  _36
REMARK   17  A    between atoms: _36  and  _37
REMARK   18  A    between atoms: _37  and  _38
REMARK   19  A    between atoms: _47  and  _49
REMARK   20  A    between atoms: _49  and  _50
REMARK   21  A    between atoms: _49  and  _52
REMARK   22  A    between atoms: _52  and  _53
REMARK   23  A    between atoms: _56  and  _58
REMARK   24  A    between atoms: _58  and  _59
REMARK   25  A    between atoms: _58  and  _61
REMARK   26  A    between atoms: _61  and  _62
REMARK   27  A    between atoms: _62  and  _63
REMARK   28  A    between atoms: _63  and  _64
REMARK   29  A    between atoms: _64  and  _65
REMARK   30  A    between atoms: _69  and  _71
REMARK   31  A    between atoms: _71  and  _72
REMARK   32  A    between atoms: _71  and  _74
REMARK   33  A    between atoms: _74  and  _75
REMARK   34  A    between atoms: _80  and  _81
REMARK   35  A    between atoms: _83  and  _85
REMARK   36  A    between atoms: _85  and  _86
REMARK   37  A    between atoms: _85  and  _88
REMARK   38  A    between atoms: _88  and  _89
REMARK   39  A    between atoms: _99  and  _101
REMARK   40  A    between atoms: _101  and  _102
REMARK   41  A    between atoms: _101  and  _104
REMARK   42  A    between atoms: _104  and  _105
REMARK   43  A    between atoms: _105  and  _106
REMARK   44  A    between atoms: _106  and  _107
REMARK   45  A    between atoms: _107  and  _108
REMARK   46  A    between atoms: _112  and  _114
REMARK   47  A    between atoms: _114  and  _115
REMARK   48  A    between atoms: _114  and  _117
REMARK   49  A    between atoms: _117  and  _118
REMARK   50  A    between atoms: _118  and  _119
REMARK   51  A    between atoms: _124  and  _126
REMARK   52  A    between atoms: _126  and  _127
REMARK   53  A    between atoms: _126  and  _129
REMARK   54  A    between atoms: _129  and  _130
REMARK   55  A    between atoms: _132  and  _134
REMARK   56  A    between atoms: _134  and  _135
REMARK   57  A    between atoms: _134  and  _137
REMARK   58  A    between atoms: _137  and  _138
REMARK   59  A    between atoms: _143  and  _144
REMARK   60  A    between atoms: _146  and  _148
REMARK   61  A    between atoms: _148  and  _149
REMARK   62  A    between atoms: _148  and  _151
REMARK   63  A    between atoms: _151  and  _152
REMARK   64  A    between atoms: _157  and  _159
REMARK   65  A    between atoms: _159  and  _160
REMARK   66  A    between atoms: _159  and  _162
REMARK   67  A    between atoms: _162  and  _163
REMARK   68  A    between atoms: _166  and  _168
REMARK   69  A    between atoms: _168  and  _169
REMARK   70  A    between atoms: _168  and  _171
REMARK   71  A    between atoms: _171  and  _172
REMARK   72  A    between atoms: _172  and  _173
REMARK   73  A    between atoms: _173  and  _174
REMARK   74  A    between atoms: _183  and  _185
REMARK   75  A    between atoms: _185  and  _186
REMARK   76  A    between atoms: _185  and  _188
REMARK   77  A    between atoms: _188  and  _189
REMARK   78  A    between atoms: _194  and  _195
REMARK   79  A    between atoms: _197  and  _199
REMARK   80  A    between atoms: _199  and  _200
REMARK   81  A    between atoms: _199  and  _202
REMARK   82  A    between atoms: _202  and  _203
REMARK   83  A    between atoms: _209  and  _211
REMARK   84  A    between atoms: _211  and  _212
REMARK   85  A    between atoms: _211  and  _214
REMARK   86  A    between atoms: _214  and  _215
REMARK   87  A    between atoms: _215  and  _216
REMARK   88  A    between atoms: _216  and  _217
REMARK   89  A    between atoms: _226  and  _228
REMARK   90  A    between atoms: _228  and  _229
REMARK   91  A    between atoms: _228  and  _231
REMARK   92  A    between atoms: _231  and  _232
REMARK   93  A    between atoms: _237  and  _239
REMARK   94  A    between atoms: _239  and  _240
REMARK   95  A    between atoms: _243  and  _245
REMARK   96  A    between atoms: _245  and  _246
REMARK   97  A    between atoms: _245  and  _248
REMARK   98  A    between atoms: _248  and  _249
REMARK   99  A    between atoms: _249  and  _250
REMARK  100  A    between atoms: _250  and  _251
REMARK  101  A    between atoms: _251  and  _252
REMARK  102  A    between atoms: _256  and  _258
REMARK  103  A    between atoms: _258  and  _259
REMARK  104  A    between atoms: _258  and  _261
REMARK  105  A    between atoms: _261  and  _262
REMARK  106  A    between atoms: _265  and  _267
REMARK  107  A    between atoms: _267  and  _268
REMARK  108  A    between atoms: _267  and  _270
REMARK  109  A    between atoms: _270  and  _271
REMARK  110  A    between atoms: _271  and  _272
REMARK  111  A    between atoms: _272  and  _274
REMARK  112  A    between atoms: _275  and  _277
REMARK  113  A    between atoms: _277  and  _278
REMARK  114  A    between atoms: _277  and  _280
REMARK  115  A    between atoms: _280  and  _281
REMARK  116  A    between atoms: _284  and  _286
REMARK  117  A    between atoms: _286  and  _287
REMARK  118  A    between atoms: _286  and  _289
REMARK  119  A    between atoms: _289  and  _290
REMARK  120  A    between atoms: _293  and  _295
REMARK  121  A    between atoms: _295  and  _296
REMARK  122  A    between atoms: _295  and  _298
REMARK  123  A    between atoms: _298  and  _299
REMARK  124  A    between atoms: _305  and  _306
REMARK  125  A    between atoms: _311  and  _313
REMARK  126  A    between atoms: _313  and  _314
REMARK  127  A    between atoms: _316  and  _318
REMARK  128  A    between atoms: _318  and  _319
REMARK  129  A    between atoms: _318  and  _321
REMARK  130  A    between atoms: _321  and  _322
REMARK  131  A    between atoms: _324  and  _326
REMARK  132  A    between atoms: _326  and  _327
REMARK  133  A    between atoms: _326  and  _329
REMARK  134  A    between atoms: _329  and  _330
REMARK  135  A    between atoms: _335  and  _336
REMARK  136  A    between atoms: _338  and  _340
REMARK  137  A    between atoms: _340  and  _341
REMARK  138  A    between atoms: _340  and  _343
REMARK  139  A    between atoms: _343  and  _344
REMARK  140  A    between atoms: _349  and  _350
REMARK  141  A    between atoms: _352  and  _354
REMARK  142  A    between atoms: _354  and  _355
REMARK  143  A    between atoms: _354  and  _357
REMARK  144  A    between atoms: _357  and  _358
REMARK  145  A    between atoms: _361  and  _363
REMARK  146  A    between atoms: _363  and  _364
REMARK                            x       y       z     vdW  Elec       q    Type
REMARK                         _______ _______ _______ _____ _____    ______ ____
ROOT
ATOM      1  CG  TRP A   1      -2.905   6.136   0.422  0.00  0.00    -0.002 A 
ATOM      2  CD1 TRP A   1      -3.742   5.119   0.057  0.00  0.00    +0.068 A 
ATOM      3  NE1 TRP A   1      -3.038   4.125  -0.590  0.00  0.00    -0.352 N 
ATOM      4  CE2 TRP A   1      -1.721   4.490  -0.657  0.00  0.00    +0.056 A 
ATOM      5  CZ2 TRP A   1      -0.633   3.818  -1.204  0.00  0.00    +0.017 A 
ATOM      6  CH2 TRP A   1       0.588   4.432  -1.135  0.00  0.00    +0.001 A 
ATOM      7  CZ3 TRP A   1       0.746   5.683  -0.527  0.00  0.00    +0.000 A 
ATOM      8  CE3 TRP A   1      -0.334   6.354   0.023  0.00  0.00    +0.001 A 
ATOM      9  HE1 TRP A   1      -3.442   3.243  -0.965  0.00  0.00    +0.166 HD
ATOM     10  CD2 TRP A   1      -1.597   5.756  -0.037  0.00  0.00    +0.013 A 
ENDROOT
BRANCH   1  11
ATOM     11  CB  TRP A   1      -3.305   7.431   1.129  0.00  0.00    +0.053 C 
BRANCH  11  12
ATOM     12  CA  TRP A   1      -2.460   7.879   2.331  0.00  0.00    +0.137 C 
BRANCH  12  13
ATOM     13  N   TRP A   1      -2.534   6.920   3.433  0.00  0.00    -0.239 NA
ATOM     14  H   TRP A   1      -1.697   6.350   3.670  0.00  0.00    +0.142 HD
ENDBRANCH  12  13
BRANCH  12  15
ATOM     15  C   TRP A   1      -2.944   9.267   2.790  0.00  0.00    +0.224 C 
ATOM     16  O   TRP A   1      -3.563  10.005   2.015  0.00  0.00    -0.287 OA
ENDBRANCH  12  15
ENDBRANCH  11  12
ENDBRANCH   1  11
TORSDOF 4
REMARK  Name = ../refined-set-2016/3hzk/3hzk_pocket.pdb
REMARK  146 active torsions:
REMARK  status: ('A' for Active; 'I' for Inactive)
REMARK    1  A    between atoms: _1  and  _3
REMARK    2  A    between atoms: _3  and  _4
REMARK    3  A    between atoms: _3  and  _6
REMARK    4  A    between atoms: _6  and  _7
REMARK    5  A    between atoms: _10  and  _12
REMARK    6  A    between atoms: _12  and  _13
REMARK    7  A    between atoms: _12  and  _15
REMARK    8  A    between atoms: _15  and  _16
REMARK    9  A    between atoms: _19  and  _21
REMARK   10  A    between atoms: _21  and  _22
REMARK   11  A    between atoms: _21  and  _24
REMARK   12  A    between atoms: _24  and  _25
REMARK   13  A    between atoms: _30  and  _32
REMARK   14  A    between atoms: _32  and  _33
REMARK   15  A    between atoms: _32  and  _35
REMARK   16  A    between atoms: _35  and  _36
REMARK   17  A    between atoms: _36  and  _37
REMARK   18  A    between atoms: _37  and  _38
REMARK   19  A    between atoms: _47  and  _49
REMARK   20  A    between atoms: _49  and  _50
REMARK   21  A    between atoms: _49  and  _52
REMARK   22  A    between atoms: _52  and  _53
REMARK   23  A    between atoms: _56  and  _58
REMARK   24  A    between atoms: _58  and  _59
REMARK   25  A    between atoms: _58  and  _61
REMARK   26  A    between atoms: _61  and  _62
REMARK   27  A    between atoms: _62  and  _63
REMARK   28  A    between atoms: _63  and  _64
REMARK   29  A    between atoms: _64  and  _65
REMARK   30  A    between atoms: _69  and  _71
REMARK   31  A    between atoms: _71  and  _72
REMARK   32  A    between atoms: _71  and  _74
REMARK   33  A    between atoms: _74  and  _75
REMARK   34  A    between atoms: _80  and  _81
REMARK   35  A    between atoms: _83  and  _85
REMARK   36  A    between atoms: _85  and  _86
REMARK   37  A    between atoms: _85  and  _88
REMARK   38  A    between atoms: _88  and  _89
REMARK   39  A    between atoms: _99  and  _101
REMARK   40  A    between atoms: _101  and  _102
REMARK   41  A    between atoms: _101  and  _104
REMARK   42  A    between atoms: _104  and  _105
REMARK   43  A    between atoms: _105  and  _106
REMARK   44  A    between atoms: _106  and  _107
REMARK   45  A    between atoms: _107  and  _108
REMARK   46  A    between atoms: _112  and  _114
REMARK   47  A    between atoms: _114  and  _115
REMARK   48  A    between atoms: _114  and  _117
REMARK   49  A    between atoms: _117  and  _118
REMARK   50  A    between atoms: _118  and  _119
REMARK   51  A    between atoms: _124  and  _126
REMARK   52  A    between atoms: _126  and  _127
REMARK   53  A    between atoms: _126  and  _129
REMARK   54  A    between atoms: _129  and  _130
REMARK   55  A    between atoms: _132  and  _134
REMARK   56  A    between atoms: _134  and  _135
REMARK   57  A    between atoms: _134  and  _137
REMARK   58  A    between atoms: _137  and  _138
REMARK   59  A    between atoms: _143  and  _144
REMARK   60  A    between atoms: _146  and  _148
REMARK   61  A    between atoms: _148  and  _149
REMARK   62  A    between atoms: _148  and  _151
REMARK   63  A    between atoms: _151  and  _152
REMARK   64  A    between atoms: _157  and  _159
REMARK   65  A    between atoms: _159  and  _160
REMARK   66  A    between atoms: _159  and  _162
REMARK   67  A    between atoms: _162  and  _163
REMARK   68  A    between atoms: _166  and  _168
REMARK   69  A    between atoms: _168  and  _169
REMARK   70  A    between atoms: _168  and  _171
REMARK   71  A    between atoms: _171  and  _172
REMARK   72  A    between atoms: _172  and  _173
REMARK   73  A    between atoms: _173  and  _174
REMARK   74  A    between atoms: _183  and  _185
REMARK   75  A    between atoms: _185  and  _186
REMARK   76  A    between atoms: _185  and  _188
REMARK   77  A    between atoms: _188  and  _189
REMARK   78  A    between atoms: _194  and  _195
REMARK   79  A    between atoms: _197  and  _199
REMARK   80  A    between atoms: _199  and  _200
REMARK   81  A    between atoms: _199  and  _202
REMARK   82  A    between atoms: _202  and  _203
REMARK   83  A    between atoms: _209  and  _211
REMARK   84  A    between atoms: _211  and  _212
REMARK   85  A    between atoms: _211  and  _214
REMARK   86  A    between atoms: _214  and  _215
REMARK   87  A    between atoms: _215  and  _216
REMARK   88  A    between atoms: _216  and  _217
REMARK   89  A    between atoms: _226  and  _228
REMARK   90  A    between atoms: _228  and  _229
REMARK   91  A    between atoms: _228  and  _231
REMARK   92  A    between atoms: _231  and  _232
REMARK   93  A    between atoms: _237  and  _239
REMARK   94  A    between atoms: _239  and  _240
REMARK   95  A    between atoms: _243  and  _245
REMARK   96  A    between atoms: _245  and  _246
REMARK   97  A    between atoms: _245  and  _248
REMARK   98  A    between atoms: _248  and  _249
REMARK   99  A    between atoms: _249  and  _250
REMARK  100  A    between atoms: _250  and  _251
REMARK  101  A    between atoms: _251  and  _252
REMARK  102  A    between atoms: _256  and  _258
REMARK  103  A    between atoms: _258  and  _259
REMARK  104  A    between atoms: _258  and  _261
REMARK  105  A    between atoms: _261  and  _262
REMARK  106  A    between atoms: _265  and  _267
REMARK  107  A    between atoms: _267  and  _268
REMARK  108  A    between atoms: _267  and  _270
REMARK  109  A    between atoms: _270  and  _271
REMARK  110  A    between atoms: _271  and  _272
REMARK  111  A    between atoms: _272  and  _274
REMARK  112  A    between atoms: _275  and  _277
REMARK  113  A    between atoms: _277  and  _278
REMARK  114  A    between atoms: _277  and  _280
REMARK  115  A    between atoms: _280  and  _281
REMARK  116  A    between atoms: _284  and  _286
REMARK  117  A    between atoms: _286  and  _287
REMARK  118  A    between atoms: _286  and  _289
REMARK  119  A    between atoms: _289  and  _290
REMARK  120  A    between atoms: _293  and  _295
REMARK  121  A    between atoms: _295  and  _296
REMARK  122  A    between atoms: _295  and  _298
REMARK  123  A    between atoms: _298  and  _299
REMARK  124  A    between atoms: _305  and  _306
REMARK  125  A    between atoms: _311  and  _313
REMARK  126  A    between atoms: _313  and  _314
REMARK  127  A    between atoms: _316  and  _318
REMARK  128  A    between atoms: _318  and  _319
REMARK  129  A    between atoms: _318  and  _321
REMARK  130  A    between atoms: _321  and  _322
REMARK  131  A    between atoms: _324  and  _326
REMARK  132  A    between atoms: _326  and  _327
REMARK  133  A    between atoms: _326  and  _329
REMARK  134  A    between atoms: _329  and  _330
REMARK  135  A    between atoms: _335  and  _336
REMARK  136  A    between atoms: _338  and  _340
REMARK  137  A    between atoms: _340  and  _341
REMARK  138  A    between atoms: _340  and  _343
REMARK  139  A    between atoms: _343  and  _344
REMARK  140  A    between atoms: _349  and  _350
REMARK  141  A    between atoms: _352  and  _354
REMARK  142  A    between atoms: _354  and  _355
REMARK  143  A    between atoms: _354  and  _357
REMARK  144  A    between atoms: _357  and  _358
REMARK  145  A    between atoms: _361  and  _363
REMARK  146  A    between atoms: _363  and  _364
REMARK                            x       y       z     vdW  Elec       q    Type
REMARK                         _______ _______ _______ _____ _____    ______ ____
ROOT
ATOM      1  CA  TYR A   4       7.730   7.305   2.390  0.00  0.00    +0.153 C 
ENDROOT
BRANCH   1   2
ATOM      2  C   TYR A   4       9.158   6.786   2.218  0.00  0.00    +0.241 C 
ATOM      3  N   ASN A   5       9.894   6.736   3.323  0.00  0.00    -0.297 N 
ATOM      4  H   ASN A   5       9.479   7.071   4.216  0.00  0.00    +0.150 HD
ATOM      5  O   TYR A   4       9.589   6.471   1.109  0.00  0.00    -0.273 OA
BRANCH   3   6
ATOM      6  CA  ASN A   5      11.265   6.228   3.331  0.00  0.00    +0.158 C 
BRANCH   6   7
ATOM      7  C   ASN A   5      11.371   5.333   4.553  0.00  0.00    +0.241 C 
ATOM      8  O   ASN A   5      11.525   5.816   5.684  0.00  0.00    -0.273 OA
ATOM      9  N   LEU A   6      11.266   4.030   4.324  0.00  0.00    -0.297 N 
ATOM     10  H   LEU A   6      11.312   3.680   3.346  0.00  0.00    +0.150 HD
BRANCH   9  11
ATOM     11  CA  LEU A   6      11.088   3.080   5.412  0.00  0.00    +0.149 C 
BRANCH  11  12
ATOM     12  C   LEU A   6       9.862   3.528   6.213  0.00  0.00    +0.241 C 
ATOM     13  N   ARG A   7       9.920   3.432   7.536  0.00  0.00    -0.298 N 
ATOM     14  H   ARG A   7      10.774   3.046   7.986  0.00  0.00    +0.150 HD
ATOM     15  O   LEU A   6       8.870   3.963   5.629  0.00  0.00    -0.273 OA
BRANCH  13  16
ATOM     16  CA  ARG A   7       8.797   3.862   8.367  0.00  0.00    +0.137 C 
BRANCH  16  17
ATOM     17  C   ARG A   7       9.310   4.513   9.633  0.00  0.00    +0.227 C 
ATOM     18  O   ARG A   7      10.278   4.042  10.232  0.00  0.00    -0.286 OA
ENDBRANCH  16  17
BRANCH  16  19
ATOM     19  CB  ARG A   7       7.887   2.685   8.747  0.00  0.00    +0.031 C 
BRANCH  19  20
ATOM     20  CG  ARG A   7       7.119   2.054   7.596  0.00  0.00    +0.045 C 
BRANCH  20  21
ATOM     21  CD  ARG A   7       7.907   0.916   6.964  0.00  0.00    +0.174 C 
BRANCH  21  22
ATOM     22  NE  ARG A   7       7.142   0.158   5.973  0.00  0.00    -0.265 N 
ATOM     23  HE  ARG A   7       6.712  -0.739   6.276  0.00  0.00    +0.259 HD
ATOM     24  CZ  ARG A   7       6.959   0.538   4.711  0.00  0.00    +0.342 C 
ATOM     25  NH2 ARG A   7       7.460   1.691   4.269  0.00  0.00    -0.292 N 
ATOM     26 HH21 ARG A   7       8.000   2.304   4.912  0.00  0.00    +0.255 HD
ATOM     27 HH22 ARG A   7       7.311   1.978   3.281  0.00  0.00    +0.255 HD
ATOM     28  NH1 ARG A   7       6.268  -0.236   3.883  0.00  0.00    -0.292 N 
ATOM     29 HH11 ARG A   7       5.872  -1.136   4.221  0.00  0.00    +0.255 HD
ATOM     30 HH12 ARG A   7       6.123   0.058   2.896  0.00  0.00    +0.255 HD
ENDBRANCH  21  22
ENDBRANCH  20  21
ENDBRANCH  19  20
ENDBRANCH  16  19
ENDBRANCH  13  16
ENDBRANCH  11  12
BRANCH  11  31
ATOM     31  CB  LEU A   6      12.353   2.974   6.280  0.00  0.00    +0.029 C 
BRANCH  31  32
ATOM     32  CG  LEU A   6      13.644   2.661   5.500  0.00  0.00    +0.002 C 
ATOM     33  CD2 LEU A   6      14.841   2.481   6.422  0.00  0.00    +0.000 C 
ATOM     34  CD1 LEU A   6      13.474   1.427   4.627  0.00  0.00    +0.000 C 
ENDBRANCH  31  32
ENDBRANCH  11  31
ENDBRANCH   9  11
ENDBRANCH   6   7
BRANCH   6  35
ATOM     35  CB  ASN A   5      12.259   7.392   3.418  0.00  0.00    +0.114 C 
BRANCH  35  36
ATOM     36  CG  ASN A   5      13.717   6.943   3.466  0.00  0.00    +0.222 C 
ATOM     37  OD1 ASN A   5      14.618   7.774   3.572  0.00  0.00    -0.275 OA
ATOM     38  ND2 ASN A   5      13.955   5.642   3.361  0.00  0.00    -0.329 N 
ATOM     39 HD21 ASN A   5      14.934   5.290   3.366  0.00  0.00    +0.145 HD
ATOM     40 HD22 ASN A   5      13.163   4.974   3.273  0.00  0.00    +0.145 HD
ENDBRANCH  35  36
ENDBRANCH   6  35
ENDBRANCH   3   6
ENDBRANCH   1   2
BRANCH   1  42
ATOM     41  C   SER A   3       6.727   5.583   3.827  0.00  0.00    +0.243 C 
ATOM     42  N   TYR A   4       7.143   6.838   3.642  0.00  0.00    -0.297 N 
ATOM     43  H   TYR A   4       7.044   7.514   4.426  0.00  0.00    +0.150 HD
ATOM     44  O   SER A   3       6.742   4.728   2.944  0.00  0.00    -0.273 OA
BRANCH  41  45
ATOM     45  CA  SER A   3       6.197   5.252   5.216  0.00  0.00    +0.178 C 
BRANCH  45  48
ATOM     46  C   GLN A   2       5.994   6.784   7.106  0.00  0.00    +0.241 C 
ATOM     47  O   GLN A   2       6.581   6.028   7.876  0.00  0.00    -0.273 OA
ATOM     48  N   SER A   3       5.719   6.476   5.843  0.00  0.00    -0.295 N 
ATOM     49  H   SER A   3       5.141   7.134   5.282  0.00  0.00    +0.150 HD
BRANCH  46  50
ATOM     50  CA  GLN A   2       5.533   8.147   7.575  0.00  0.00    +0.149 C 
BRANCH  50  52
ATOM     51  C   LYS A   1       3.922   7.685   9.326  0.00  0.00    +0.238 C 
ATOM     52  N   GLN A   2       5.153   8.054   8.981  0.00  0.00    -0.297 N 
ATOM     53  H   GLN A   2       5.850   8.278   9.719  0.00  0.00    +0.150 HD
ATOM     54  O   LYS A   1       3.010   7.523   8.505  0.00  0.00    -0.274 OA
BRANCH  51  55
ATOM     55  CA  LYS A   1       3.665   7.461  10.808  0.00  0.00    +0.145 C 
BRANCH  55  56
ATOM     56  N   LYS A   1       2.540   8.271  11.238  0.00  0.00    -0.238 NA
ATOM     57  H   LYS A   1       1.798   8.512  10.550  0.00  0.00    +0.142 HD
ENDBRANCH  55  56
BRANCH  55  58
ATOM     58  CB  LYS A   1       3.351   5.982  11.032  0.00  0.00    +0.026 C 
BRANCH  58  59
ATOM     59  CG  LYS A   1       4.481   5.041  10.646  0.00  0.00    -0.000 C 
BRANCH  59  60
ATOM     60  CD  LYS A   1       3.938   3.788   9.983  0.00  0.00    -0.024 C 
BRANCH  60  61
ATOM     61  CE  LYS A   1       3.305   4.133   8.633  0.00  0.00    -0.086 C 
BRANCH  61  62
ATOM     62  NZ  LYS A   1       2.507   3.000   8.097  0.00  0.00    +0.380 N 
ATOM     63  HZ1 LYS A   1       1.746   2.766   8.766  0.00  0.00    -0.089 HD
ATOM     64  HZ2 LYS A   1       3.124   2.173   7.969  0.00  0.00    -0.089 HD
ATOM     65  HZ3 LYS A   1       2.094   3.271   7.182  0.00  0.00    -0.089 HD
ENDBRANCH  61  62
ENDBRANCH  60  61
ENDBRANCH  59  60
ENDBRANCH  58  59
ENDBRANCH  55  58
ENDBRANCH  51  55
ENDBRANCH  50  52
BRANCH  50  66
ATOM     66  CB  GLN A   2       6.636   9.189   7.354  0.00  0.00    +0.039 C 
BRANCH  66  67
ATOM     67  CG  GLN A   2       7.999   8.827   7.931  0.00  0.00    +0.087 C 
BRANCH  67  68
ATOM     68  CD  GLN A   2       8.846   7.983   6.982  0.00  0.00    +0.219 C 
ATOM     69  NE2 GLN A   2       9.868   7.322   7.524  0.00  0.00    -0.329 N 
ATOM     70 HE21 GLN A   2      10.055   7.399   8.544  0.00  0.00    +0.145 HD
ATOM     71 HE22 GLN A   2      10.479   6.729   6.927  0.00  0.00    +0.145 HD
ATOM     72  OE1 GLN A   2       8.583   7.925   5.779  0.00  0.00    -0.275 OA
ENDBRANCH  67  68
ENDBRANCH  66  67
ENDBRANCH  50  66
ENDBRANCH  46  50
ENDBRANCH  45  48
BRANCH  45  73
ATOM     73  CB  SER A   3       5.064   4.231   5.106  0.00  0.00    +0.166 C 
BRANCH  73  74
ATOM     74  OG  SER A   3       4.002   4.752   4.330  0.00  0.00    -0.380 OA
ATOM     75  H   SER A   3       3.278   4.079   4.269  0.00  0.00    +0.211 HD
ENDBRANCH  73  74
ENDBRANCH  45  73
ENDBRANCH  41  45
ENDBRANCH   1  42
BRANCH   1  76
ATOM     76  CB  TYR A   4       7.757   8.836   2.361  0.00  0.00    +0.055 C 
BRANCH  76  77
ATOM     77  CG  TYR A   4       8.311   9.416   1.070  0.00  0.00    -0.020 A 
ATOM     78  CD2 TYR A   4       9.598   9.940   1.012  0.00  0.00    -0.001 A 
ATOM     79  CE2 TYR A   4      10.110  10.469  -0.167  0.00  0.00    +0.036 A 
ATOM     80  CZ  TYR A   4       9.323  10.477  -1.306  0.00  0.00    +0.134 A 
ATOM     81  CE1 TYR A   4       8.047   9.960  -1.270  0.00  0.00    +0.036 A 
ATOM     82  CD1 TYR A   4       7.550   9.432  -0.084  0.00  0.00    -0.001 A 
BRANCH  80  83
ATOM     83  OH  TYR A   4       9.808  10.997  -2.486  0.00  0.00    -0.506 OA
ATOM     84  HH  TYR A   4       9.115  10.920  -3.189  0.00  0.00    +0.292 HD
ENDBRANCH  80  83
ENDBRANCH  76  77
ENDBRANCH   1  76
TORSDOF 35
REMARK  Name = ../refined-set-2016/3hzk/3hzk_pocket.pdb
REMARK  146 active torsions:
REMARK  status: ('A' for Active; 'I' for Inactive)
REMARK    1  A    between atoms: _1  and  _3
REMARK    2  A    between atoms: _3  and  _4
REMARK    3  A    between atoms: _3  and  _6
REMARK    4  A    between atoms: _6  and  _7
REMARK    5  A    between atoms: _10  and  _12
REMARK    6  A    between atoms: _12  and  _13
REMARK    7  A    between atoms: _12  and  _15
REMARK    8  A    between atoms: _15  and  _16
REMARK    9  A    between atoms: _19  and  _21
REMARK   10  A    between atoms: _21  and  _22
REMARK   11  A    between atoms: _21  and  _24
REMARK   12  A    between atoms: _24  and  _25
REMARK   13  A    between atoms: _30  and  _32
REMARK   14  A    between atoms: _32  and  _33
REMARK   15  A    between atoms: _32  and  _35
REMARK   16  A    between atoms: _35  and  _36
REMARK   17  A    between atoms: _36  and  _37
REMARK   18  A    between atoms: _37  and  _38
REMARK   19  A    between atoms: _47  and  _49
REMARK   20  A    between atoms: _49  and  _50
REMARK   21  A    between atoms: _49  and  _52
REMARK   22  A    between atoms: _52  and  _53
REMARK   23  A    between atoms: _56  and  _58
REMARK   24  A    between atoms: _58  and  _59
REMARK   25  A    between atoms: _58  and  _61
REMARK   26  A    between atoms: _61  and  _62
REMARK   27  A    between atoms: _62  and  _63
REMARK   28  A    between atoms: _63  and  _64
REMARK   29  A    between atoms: _64  and  _65
REMARK   30  A    between atoms: _69  and  _71
REMARK   31  A    between atoms: _71  and  _72
REMARK   32  A    between atoms: _71  and  _74
REMARK   33  A    between atoms: _74  and  _75
REMARK   34  A    between atoms: _80  and  _81
REMARK   35  A    between atoms: _83  and  _85
REMARK   36  A    between atoms: _85  and  _86
REMARK   37  A    between atoms: _85  and  _88
REMARK   38  A    between atoms: _88  and  _89
REMARK   39  A    between atoms: _99  and  _101
REMARK   40  A    between atoms: _101  and  _102
REMARK   41  A    between atoms: _101  and  _104
REMARK   42  A    between atoms: _104  and  _105
REMARK   43  A    between atoms: _105  and  _106
REMARK   44  A    between atoms: _106  and  _107
REMARK   45  A    between atoms: _107  and  _108
REMARK   46  A    between atoms: _112  and  _114
REMARK   47  A    between atoms: _114  and  _115
REMARK   48  A    between atoms: _114  and  _117
REMARK   49  A    between atoms: _117  and  _118
REMARK   50  A    between atoms: _118  and  _119
REMARK   51  A    between atoms: _124  and  _126
REMARK   52  A    between atoms: _126  and  _127
REMARK   53  A    between atoms: _126  and  _129
REMARK   54  A    between atoms: _129  and  _130
REMARK   55  A    between atoms: _132  and  _134
REMARK   56  A    between atoms: _134  and  _135
REMARK   57  A    between atoms: _134  and  _137
REMARK   58  A    between atoms: _137  and  _138
REMARK   59  A    between atoms: _143  and  _144
REMARK   60  A    between atoms: _146  and  _148
REMARK   61  A    between atoms: _148  and  _149
REMARK   62  A    between atoms: _148  and  _151
REMARK   63  A    between atoms: _151  and  _152
REMARK   64  A    between atoms: _157  and  _159
REMARK   65  A    between atoms: _159  and  _160
REMARK   66  A    between atoms: _159  and  _162
REMARK   67  A    between atoms: _162  and  _163
REMARK   68  A    between atoms: _166  and  _168
REMARK   69  A    between atoms: _168  and  _169
REMARK   70  A    between atoms: _168  and  _171
REMARK   71  A    between atoms: _171  and  _172
REMARK   72  A    between atoms: _172  and  _173
REMARK   73  A    between atoms: _173  and  _174
REMARK   74  A    between atoms: _183  and  _185
REMARK   75  A    between atoms: _185  and  _186
REMARK   76  A    between atoms: _185  and  _188
REMARK   77  A    between atoms: _188  and  _189
REMARK   78  A    between atoms: _194  and  _195
REMARK   79  A    between atoms: _197  and  _199
REMARK   80  A    between atoms: _199  and  _200
REMARK   81  A    between atoms: _199  and  _202
REMARK   82  A    between atoms: _202  and  _203
REMARK   83  A    between atoms: _209  and  _211
REMARK   84  A    between atoms: _211  and  _212
REMARK   85  A    between atoms: _211  and  _214
REMARK   86  A    between atoms: _214  and  _215
REMARK   87  A    between atoms: _215  and  _216
REMARK   88  A    between atoms: _216  and  _217
REMARK   89  A    between atoms: _226  and  _228
REMARK   90  A    between atoms: _228  and  _229
REMARK   91  A    between atoms: _228  and  _231
REMARK   92  A    between atoms: _231  and  _232
REMARK   93  A    between atoms: _237  and  _239
REMARK   94  A    between atoms: _239  and  _240
REMARK   95  A    between atoms: _243  and  _245
REMARK   96  A    between atoms: _245  and  _246
REMARK   97  A    between atoms: _245  and  _248
REMARK   98  A    between atoms: _248  and  _249
REMARK   99  A    between atoms: _249  and  _250
REMARK  100  A    between atoms: _250  and  _251
REMARK  101  A    between atoms: _251  and  _252
REMARK  102  A    between atoms: _256  and  _258
REMARK  103  A    between atoms: _258  and  _259
REMARK  104  A    between atoms: _258  and  _261
REMARK  105  A    between atoms: _261  and  _262
REMARK  106  A    between atoms: _265  and  _267
REMARK  107  A    between atoms: _267  and  _268
REMARK  108  A    between atoms: _267  and  _270
REMARK  109  A    between atoms: _270  and  _271
REMARK  110  A    between atoms: _271  and  _272
REMARK  111  A    between atoms: _272  and  _274
REMARK  112  A    between atoms: _275  and  _277
REMARK  113  A    between atoms: _277  and  _278
REMARK  114  A    between atoms: _277  and  _280
REMARK  115  A    between atoms: _280  and  _281
REMARK  116  A    between atoms: _284  and  _286
REMARK  117  A    between atoms: _286  and  _287
REMARK  118  A    between atoms: _286  and  _289
REMARK  119  A    between atoms: _289  and  _290
REMARK  120  A    between atoms: _293  and  _295
REMARK  121  A    between atoms: _295  and  _296
REMARK  122  A    between atoms: _295  and  _298
REMARK  123  A    between atoms: _298  and  _299
REMARK  124  A    between atoms: _305  and  _306
REMARK  125  A    between atoms: _311  and  _313
REMARK  126  A    between atoms: _313  and  _314
REMARK  127  A    between atoms: _316  and  _318
REMARK  128  A    between atoms: _318  and  _319
REMARK  129  A    between atoms: _318  and  _321
REMARK  130  A    between atoms: _321  and  _322
REMARK  131  A    between atoms: _324  and  _326
REMARK  132  A    between atoms: _326  and  _327
REMARK  133  A    between atoms: _326  and  _329
REMARK  134  A    between atoms: _329  and  _330
REMARK  135  A    between atoms: _335  and  _336
REMARK  136  A    between atoms: _338  and  _340
REMARK  137  A    between atoms: _340  and  _341
REMARK  138  A    between atoms: _340  and  _343
REMARK  139  A    between atoms: _343  and  _344
REMARK  140  A    between atoms: _349  and  _350
REMARK  141  A    between atoms: _352  and  _354
REMARK  142  A    between atoms: _354  and  _355
REMARK  143  A    between atoms: _354  and  _357
REMARK  144  A    between atoms: _357  and  _358
REMARK  145  A    between atoms: _361  and  _363
REMARK  146  A    between atoms: _363  and  _364
REMARK                            x       y       z     vdW  Elec       q    Type
REMARK                         _______ _______ _______ _____ _____    ______ ____
ROOT
ATOM      1  CG  TYR A   1       6.918  -5.244   2.094  0.00  0.00    -0.020 A 
ATOM      2  CD2 TYR A   1       7.663  -4.068   2.101  0.00  0.00    -0.001 A 
ATOM      3  CE2 TYR A   1       8.152  -3.515   0.943  0.00  0.00    +0.036 A 
ATOM      4  CZ  TYR A   1       7.901  -4.126  -0.261  0.00  0.00    +0.134 A 
ATOM      5  CE1 TYR A   1       7.155  -5.297  -0.311  0.00  0.00    +0.036 A 
ATOM      6  CD1 TYR A   1       6.655  -5.845   0.868  0.00  0.00    -0.001 A 
ENDROOT
BRANCH   4   7
ATOM      7  OH  TYR A   1       8.404  -3.552  -1.412  0.00  0.00    -0.506 OA
ATOM      8  HH  TYR A   1       9.391  -3.507  -1.353  0.00  0.00    +0.292 HD
ENDBRANCH   4   7
BRANCH   1   9
ATOM      9  CB  TYR A   1       6.370  -5.794   3.391  0.00  0.00    +0.051 C 
BRANCH   9  10
ATOM     10  CA  TYR A   1       6.175  -7.309   3.524  0.00  0.00    +0.137 C 
BRANCH  10  11
ATOM     11  N   TYR A   1       5.089  -7.780   2.678  0.00  0.00    -0.239 NA
ATOM     12  H   TYR A   1       4.564  -7.093   2.100  0.00  0.00    +0.142 HD
ENDBRANCH  10  11
BRANCH  10  13
ATOM     13  C   TYR A   1       5.726  -7.564   4.956  0.00  0.00    +0.224 C 
ATOM     14  O   TYR A   1       4.527  -7.588   5.229  0.00  0.00    -0.287 OA
ENDBRANCH  10  13
ENDBRANCH   9  10
ENDBRANCH   1   9
TORSDOF 5
REMARK  Name = ../refined-set-2016/3hzk/3hzk_pocket.pdb
REMARK  146 active torsions:
REMARK  status: ('A' for Active; 'I' for Inactive)
REMARK    1  A    between atoms: _1  and  _3
REMARK    2  A    between atoms: _3  and  _4
REMARK    3  A    between atoms: _3  and  _6
REMARK    4  A    between atoms: _6  and  _7
REMARK    5  A    between atoms: _10  and  _12
REMARK    6  A    between atoms: _12  and  _13
REMARK    7  A    between atoms: _12  and  _15
REMARK    8  A    between atoms: _15  and  _16
REMARK    9  A    between atoms: _19  and  _21
REMARK   10  A    between atoms: _21  and  _22
REMARK   11  A    between atoms: _21  and  _24
REMARK   12  A    between atoms: _24  and  _25
REMARK   13  A    between atoms: _30  and  _32
REMARK   14  A    between atoms: _32  and  _33
REMARK   15  A    between atoms: _32  and  _35
REMARK   16  A    between atoms: _35  and  _36
REMARK   17  A    between atoms: _36  and  _37
REMARK   18  A    between atoms: _37  and  _38
REMARK   19  A    between atoms: _47  and  _49
REMARK   20  A    between atoms: _49  and  _50
REMARK   21  A    between atoms: _49  and  _52
REMARK   22  A    between atoms: _52  and  _53
REMARK   23  A    between atoms: _56  and  _58
REMARK   24  A    between atoms: _58  and  _59
REMARK   25  A    between atoms: _58  and  _61
REMARK   26  A    between atoms: _61  and  _62
REMARK   27  A    between atoms: _62  and  _63
REMARK   28  A    between atoms: _63  and  _64
REMARK   29  A    between atoms: _64  and  _65
REMARK   30  A    between atoms: _69  and  _71
REMARK   31  A    between atoms: _71  and  _72
REMARK   32  A    between atoms: _71  and  _74
REMARK   33  A    between atoms: _74  and  _75
REMARK   34  A    between atoms: _80  and  _81
REMARK   35  A    between atoms: _83  and  _85
REMARK   36  A    between atoms: _85  and  _86
REMARK   37  A    between atoms: _85  and  _88
REMARK   38  A    between atoms: _88  and  _89
REMARK   39  A    between atoms: _99  and  _101
REMARK   40  A    between atoms: _101  and  _102
REMARK   41  A    between atoms: _101  and  _104
REMARK   42  A    between atoms: _104  and  _105
REMARK   43  A    between atoms: _105  and  _106
REMARK   44  A    between atoms: _106  and  _107
REMARK   45  A    between atoms: _107  and  _108
REMARK   46  A    between atoms: _112  and  _114
REMARK   47  A    between atoms: _114  and  _115
REMARK   48  A    between atoms: _114  and  _117
REMARK   49  A    between atoms: _117  and  _118
REMARK   50  A    between atoms: _118  and  _119
REMARK   51  A    between atoms: _124  and  _126
REMARK   52  A    between atoms: _126  and  _127
REMARK   53  A    between atoms: _126  and  _129
REMARK   54  A    between atoms: _129  and  _130
REMARK   55  A    between atoms: _132  and  _134
REMARK   56  A    between atoms: _134  and  _135
REMARK   57  A    between atoms: _134  and  _137
REMARK   58  A    between atoms: _137  and  _138
REMARK   59  A    between atoms: _143  and  _144
REMARK   60  A    between atoms: _146  and  _148
REMARK   61  A    between atoms: _148  and  _149
REMARK   62  A    between atoms: _148  and  _151
REMARK   63  A    between atoms: _151  and  _152
REMARK   64  A    between atoms: _157  and  _159
REMARK   65  A    between atoms: _159  and  _160
REMARK   66  A    between atoms: _159  and  _162
REMARK   67  A    between atoms: _162  and  _163
REMARK   68  A    between atoms: _166  and  _168
REMARK   69  A    between atoms: _168  and  _169
REMARK   70  A    between atoms: _168  and  _171
REMARK   71  A    between atoms: _171  and  _172
REMARK   72  A    between atoms: _172  and  _173
REMARK   73  A    between atoms: _173  and  _174
REMARK   74  A    between atoms: _183  and  _185
REMARK   75  A    between atoms: _185  and  _186
REMARK   76  A    between atoms: _185  and  _188
REMARK   77  A    between atoms: _188  and  _189
REMARK   78  A    between atoms: _194  and  _195
REMARK   79  A    between atoms: _197  and  _199
REMARK   80  A    between atoms: _199  and  _200
REMARK   81  A    between atoms: _199  and  _202
REMARK   82  A    between atoms: _202  and  _203
REMARK   83  A    between atoms: _209  and  _211
REMARK   84  A    between atoms: _211  and  _212
REMARK   85  A    between atoms: _211  and  _214
REMARK   86  A    between atoms: _214  and  _215
REMARK   87  A    between atoms: _215  and  _216
REMARK   88  A    between atoms: _216  and  _217
REMARK   89  A    between atoms: _226  and  _228
REMARK   90  A    between atoms: _228  and  _229
REMARK   91  A    between atoms: _228  and  _231
REMARK   92  A    between atoms: _231  and  _232
REMARK   93  A    between atoms: _237  and  _239
REMARK   94  A    between atoms: _239  and  _240
REMARK   95  A    between atoms: _243  and  _245
REMARK   96  A    between atoms: _245  and  _246
REMARK   97  A    between atoms: _245  and  _248
REMARK   98  A    between atoms: _248  and  _249
REMARK   99  A    between atoms: _249  and  _250
REMARK  100  A    between atoms: _250  and  _251
REMARK  101  A    between atoms: _251  and  _252
REMARK  102  A    between atoms: _256  and  _258
REMARK  103  A    between atoms: _258  and  _259
REMARK  104  A    between atoms: _258  and  _261
REMARK  105  A    between atoms: _261  and  _262
REMARK  106  A    between atoms: _265  and  _267
REMARK  107  A    between atoms: _267  and  _268
REMARK  108  A    between atoms: _267  and  _270
REMARK  109  A    between atoms: _270  and  _271
REMARK  110  A    between atoms: _271  and  _272
REMARK  111  A    between atoms: _272  and  _274
REMARK  112  A    between atoms: _275  and  _277
REMARK  113  A    between atoms: _277  and  _278
REMARK  114  A    between atoms: _277  and  _280
REMARK  115  A    between atoms: _280  and  _281
REMARK  116  A    between atoms: _284  and  _286
REMARK  117  A    between atoms: _286  and  _287
REMARK  118  A    between atoms: _286  and  _289
REMARK  119  A    between atoms: _289  and  _290
REMARK  120  A    between atoms: _293  and  _295
REMARK  121  A    between atoms: _295  and  _296
REMARK  122  A    between atoms: _295  and  _298
REMARK  123  A    between atoms: _298  and  _299
REMARK  124  A    between atoms: _305  and  _306
REMARK  125  A    between atoms: _311  and  _313
REMARK  126  A    between atoms: _313  and  _314
REMARK  127  A    between atoms: _316  and  _318
REMARK  128  A    between atoms: _318  and  _319
REMARK  129  A    between atoms: _318  and  _321
REMARK  130  A    between atoms: _321  and  _322
REMARK  131  A    between atoms: _324  and  _326
REMARK  132  A    between atoms: _326  and  _327
REMARK  133  A    between atoms: _326  and  _329
REMARK  134  A    between atoms: _329  and  _330
REMARK  135  A    between atoms: _335  and  _336
REMARK  136  A    between atoms: _338  and  _340
REMARK  137  A    between atoms: _340  and  _341
REMARK  138  A    between atoms: _340  and  _343
REMARK  139  A    between atoms: _343  and  _344
REMARK  140  A    between atoms: _349  and  _350
REMARK  141  A    between atoms: _352  and  _354
REMARK  142  A    between atoms: _354  and  _355
REMARK  143  A    between atoms: _354  and  _357
REMARK  144  A    between atoms: _357  and  _358
REMARK  145  A    between atoms: _361  and  _363
REMARK  146  A    between atoms: _363  and  _364
REMARK                            x       y       z     vdW  Elec       q    Type
REMARK                         _______ _______ _______ _____ _____    ______ ____
ROOT
ATOM      1  CB  PHE A   1       9.781  -4.109   6.831  0.00  0.00    +0.051 C 
ENDROOT
BRANCH   1   2
ATOM      2  CG  PHE A   1      10.268  -3.231   5.687  0.00  0.00    -0.020 A 
ATOM      3  CD2 PHE A   1       9.945  -1.883   5.658  0.00  0.00    -0.004 A 
ATOM      4  CE2 PHE A   1      10.356  -1.066   4.608  0.00  0.00    -0.000 A 
ATOM      5  CZ  PHE A   1      11.089  -1.590   3.561  0.00  0.00    -0.000 A 
ATOM      6  CE1 PHE A   1      11.410  -2.939   3.564  0.00  0.00    -0.000 A 
ATOM      7  CD1 PHE A   1      10.985  -3.756   4.618  0.00  0.00    -0.004 A 
ENDBRANCH   1   2
BRANCH   1   8
ATOM      8  CA  PHE A   1      10.881  -4.932   7.558  0.00  0.00    +0.137 C 
BRANCH   8   9
ATOM      9  N   PHE A   1      11.791  -4.121   8.362  0.00  0.00    -0.239 NA
ATOM     10  H   PHE A   1      12.635  -3.698   7.926  0.00  0.00    +0.142 HD
ENDBRANCH   8   9
BRANCH   8  11
ATOM     11  C   PHE A   1      11.627  -5.883   6.632  0.00  0.00    +0.224 C 
ATOM     12  O   PHE A   1      12.838  -5.782   6.469  0.00  0.00    -0.287 OA
ENDBRANCH   8  11
ENDBRANCH   1   8
TORSDOF 4
REMARK  Name = ../refined-set-2016/3hzk/3hzk_pocket.pdb
REMARK  146 active torsions:
REMARK  status: ('A' for Active; 'I' for Inactive)
REMARK    1  A    between atoms: _1  and  _3
REMARK    2  A    between atoms: _3  and  _4
REMARK    3  A    between atoms: _3  and  _6
REMARK    4  A    between atoms: _6  and  _7
REMARK    5  A    between atoms: _10  and  _12
REMARK    6  A    between atoms: _12  and  _13
REMARK    7  A    between atoms: _12  and  _15
REMARK    8  A    between atoms: _15  and  _16
REMARK    9  A    between atoms: _19  and  _21
REMARK   10  A    between atoms: _21  and  _22
REMARK   11  A    between atoms: _21  and  _24
REMARK   12  A    between atoms: _24  and  _25
REMARK   13  A    between atoms: _30  and  _32
REMARK   14  A    between atoms: _32  and  _33
REMARK   15  A    between atoms: _32  and  _35
REMARK   16  A    between atoms: _35  and  _36
REMARK   17  A    between atoms: _36  and  _37
REMARK   18  A    between atoms: _37  and  _38
REMARK   19  A    between atoms: _47  and  _49
REMARK   20  A    between atoms: _49  and  _50
REMARK   21  A    between atoms: _49  and  _52
REMARK   22  A    between atoms: _52  and  _53
REMARK   23  A    between atoms: _56  and  _58
REMARK   24  A    between atoms: _58  and  _59
REMARK   25  A    between atoms: _58  and  _61
REMARK   26  A    between atoms: _61  and  _62
REMARK   27  A    between atoms: _62  and  _63
REMARK   28  A    between atoms: _63  and  _64
REMARK   29  A    between atoms: _64  and  _65
REMARK   30  A    between atoms: _69  and  _71
REMARK   31  A    between atoms: _71  and  _72
REMARK   32  A    between atoms: _71  and  _74
REMARK   33  A    between atoms: _74  and  _75
REMARK   34  A    between atoms: _80  and  _81
REMARK   35  A    between atoms: _83  and  _85
REMARK   36  A    between atoms: _85  and  _86
REMARK   37  A    between atoms: _85  and  _88
REMARK   38  A    between atoms: _88  and  _89
REMARK   39  A    between atoms: _99  and  _101
REMARK   40  A    between atoms: _101  and  _102
REMARK   41  A    between atoms: _101  and  _104
REMARK   42  A    between atoms: _104  and  _105
REMARK   43  A    between atoms: _105  and  _106
REMARK   44  A    between atoms: _106  and  _107
REMARK   45  A    between atoms: _107  and  _108
REMARK   46  A    between atoms: _112  and  _114
REMARK   47  A    between atoms: _114  and  _115
REMARK   48  A    between atoms: _114  and  _117
REMARK   49  A    between atoms: _117  and  _118
REMARK   50  A    between atoms: _118  and  _119
REMARK   51  A    between atoms: _124  and  _126
REMARK   52  A    between atoms: _126  and  _127
REMARK   53  A    between atoms: _126  and  _129
REMARK   54  A    between atoms: _129  and  _130
REMARK   55  A    between atoms: _132  and  _134
REMARK   56  A    between atoms: _134  and  _135
REMARK   57  A    between atoms: _134  and  _137
REMARK   58  A    between atoms: _137  and  _138
REMARK   59  A    between atoms: _143  and  _144
REMARK   60  A    between atoms: _146  and  _148
REMARK   61  A    between atoms: _148  and  _149
REMARK   62  A    between atoms: _148  and  _151
REMARK   63  A    between atoms: _151  and  _152
REMARK   64  A    between atoms: _157  and  _159
REMARK   65  A    between atoms: _159  and  _160
REMARK   66  A    between atoms: _159  and  _162
REMARK   67  A    between atoms: _162  and  _163
REMARK   68  A    between atoms: _166  and  _168
REMARK   69  A    between atoms: _168  and  _169
REMARK   70  A    between atoms: _168  and  _171
REMARK   71  A    between atoms: _171  and  _172
REMARK   72  A    between atoms: _172  and  _173
REMARK   73  A    between atoms: _173  and  _174
REMARK   74  A    between atoms: _183  and  _185
REMARK   75  A    between atoms: _185  and  _186
REMARK   76  A    between atoms: _185  and  _188
REMARK   77  A    between atoms: _188  and  _189
REMARK   78  A    between atoms: _194  and  _195
REMARK   79  A    between atoms: _197  and  _199
REMARK   80  A    between atoms: _199  and  _200
REMARK   81  A    between atoms: _199  and  _202
REMARK   82  A    between atoms: _202  and  _203
REMARK   83  A    between atoms: _209  and  _211
REMARK   84  A    between atoms: _211  and  _212
REMARK   85  A    between atoms: _211  and  _214
REMARK   86  A    between atoms: _214  and  _215
REMARK   87  A    between atoms: _215  and  _216
REMARK   88  A    between atoms: _216  and  _217
REMARK   89  A    between atoms: _226  and  _228
REMARK   90  A    between atoms: _228  and  _229
REMARK   91  A    between atoms: _228  and  _231
REMARK   92  A    between atoms: _231  and  _232
REMARK   93  A    between atoms: _237  and  _239
REMARK   94  A    between atoms: _239  and  _240
REMARK   95  A    between atoms: _243  and  _245
REMARK   96  A    between atoms: _245  and  _246
REMARK   97  A    between atoms: _245  and  _248
REMARK   98  A    between atoms: _248  and  _249
REMARK   99  A    between atoms: _249  and  _250
REMARK  100  A    between atoms: _250  and  _251
REMARK  101  A    between atoms: _251  and  _252
REMARK  102  A    between atoms: _256  and  _258
REMARK  103  A    between atoms: _258  and  _259
REMARK  104  A    between atoms: _258  and  _261
REMARK  105  A    between atoms: _261  and  _262
REMARK  106  A    between atoms: _265  and  _267
REMARK  107  A    between atoms: _267  and  _268
REMARK  108  A    between atoms: _267  and  _270
REMARK  109  A    between atoms: _270  and  _271
REMARK  110  A    between atoms: _271  and  _272
REMARK  111  A    between atoms: _272  and  _274
REMARK  112  A    between atoms: _275  and  _277
REMARK  113  A    between atoms: _277  and  _278
REMARK  114  A    between atoms: _277  and  _280
REMARK  115  A    between atoms: _280  and  _281
REMARK  116  A    between atoms: _284  and  _286
REMARK  117  A    between atoms: _286  and  _287
REMARK  118  A    between atoms: _286  and  _289
REMARK  119  A    between atoms: _289  and  _290
REMARK  120  A    between atoms: _293  and  _295
REMARK  121  A    between atoms: _295  and  _296
REMARK  122  A    between atoms: _295  and  _298
REMARK  123  A    between atoms: _298  and  _299
REMARK  124  A    between atoms: _305  and  _306
REMARK  125  A    between atoms: _311  and  _313
REMARK  126  A    between atoms: _313  and  _314
REMARK  127  A    between atoms: _316  and  _318
REMARK  128  A    between atoms: _318  and  _319
REMARK  129  A    between atoms: _318  and  _321
REMARK  130  A    between atoms: _321  and  _322
REMARK  131  A    between atoms: _324  and  _326
REMARK  132  A    between atoms: _326  and  _327
REMARK  133  A    between atoms: _326  and  _329
REMARK  134  A    between atoms: _329  and  _330
REMARK  135  A    between atoms: _335  and  _336
REMARK  136  A    between atoms: _338  and  _340
REMARK  137  A    between atoms: _340  and  _341
REMARK  138  A    between atoms: _340  and  _343
REMARK  139  A    between atoms: _343  and  _344
REMARK  140  A    between atoms: _349  and  _350
REMARK  141  A    between atoms: _352  and  _354
REMARK  142  A    between atoms: _354  and  _355
REMARK  143  A    between atoms: _354  and  _357
REMARK  144  A    between atoms: _357  and  _358
REMARK  145  A    between atoms: _361  and  _363
REMARK  146  A    between atoms: _363  and  _364
REMARK                            x       y       z     vdW  Elec       q    Type
REMARK                         _______ _______ _______ _____ _____    ______ ____
ROOT
ATOM      1  CA  ARG A   1       9.982  -7.545   1.594  0.00  0.00    +0.145 C 
ENDROOT
BRANCH   1   2
ATOM      2  C   ARG A   1       9.387  -8.889   1.161  0.00  0.00    +0.238 C 
ATOM      3  O   ARG A   1       9.774  -9.954   1.655  0.00  0.00    -0.274 OA
ATOM      4  N   ASN A   2       8.420  -8.825   0.251  0.00  0.00    -0.298 N 
ATOM      5  H   ASN A   2       8.171  -7.901  -0.155  0.00  0.00    +0.150 HD
BRANCH   4   6
ATOM      6  CA  ASN A   2       7.702 -10.004  -0.193  0.00  0.00    +0.146 C 
BRANCH   6   7
ATOM      7  C   ASN A   2       8.471 -10.740  -1.284  0.00  0.00    +0.227 C 
ATOM      8  O   ASN A   2       9.584 -10.350  -1.646  0.00  0.00    -0.286 OA
ENDBRANCH   6   7
BRANCH   6   9
ATOM      9  CB  ASN A   2       6.319  -9.609  -0.706  0.00  0.00    +0.112 C 
BRANCH   9  10
ATOM     10  CG  ASN A   2       6.391  -8.623  -1.857  0.00  0.00    +0.222 C 
ATOM     11  ND2 ASN A   2       5.237  -8.158  -2.314  0.00  0.00    -0.329 N 
ATOM     12 HD21 ASN A   2       4.343  -8.469  -1.882  0.00  0.00    +0.145 HD
ATOM     13 HD22 ASN A   2       5.225  -7.483  -3.105  0.00  0.00    +0.145 HD
ATOM     14  OD1 ASN A   2       7.474  -8.290  -2.330  0.00  0.00    -0.275 OA
ENDBRANCH   9  10
ENDBRANCH   6   9
ENDBRANCH   4   6
ENDBRANCH   1   2
BRANCH   1  15
ATOM     15  N   ARG A   1      10.884  -7.663   2.728  0.00  0.00    -0.238 NA
ATOM     16  H   ARG A   1      11.912  -7.635   2.571  0.00  0.00    +0.142 HD
ENDBRANCH   1  15
BRANCH   1  17
ATOM     17  CB  ARG A   1      10.676  -6.837   0.433  0.00  0.00    +0.030 C 
BRANCH  17  18
ATOM     18  CG  ARG A   1      11.207  -5.451   0.798  0.00  0.00    +0.045 C 
BRANCH  18  19
ATOM     19  CD  ARG A   1      11.742  -4.723  -0.425  0.00  0.00    +0.174 C 
BRANCH  19  20
ATOM     20  NE  ARG A   1      11.951  -3.295  -0.191  0.00  0.00    -0.265 N 
ATOM     21  CZ  ARG A   1      13.076  -2.773   0.285  0.00  0.00    +0.342 C 
ATOM     22  NH2 ARG A   1      14.105  -3.560   0.582  0.00  0.00    -0.292 N 
ATOM     23 HH21 ARG A   1      14.984  -3.148   0.954  0.00  0.00    +0.255 HD
ATOM     24 HH22 ARG A   1      14.031  -4.588   0.442  0.00  0.00    +0.255 HD
ATOM     25  NH1 ARG A   1      13.178  -1.462   0.452  0.00  0.00    -0.292 N 
ATOM     26 HH11 ARG A   1      14.058  -1.052   0.825  0.00  0.00    +0.255 HD
ATOM     27 HH12 ARG A   1      12.378  -0.843   0.210  0.00  0.00    +0.255 HD
ATOM     28  HE  ARG A   1      11.169  -2.646  -0.411  0.00  0.00    +0.259 HD
ENDBRANCH  19  20
ENDBRANCH  18  19
ENDBRANCH  17  18
ENDBRANCH   1  17
TORSDOF 10
REMARK  Name = ../refined-set-2016/3hzk/3hzk_pocket.pdb
REMARK  146 active torsions:
REMARK  status: ('A' for Active; 'I' for Inactive)
REMARK    1  A    between atoms: _1  and  _3
REMARK    2  A    between atoms: _3  and  _4
REMARK    3  A    between atoms: _3  and  _6
REMARK    4  A    between atoms: _6  and  _7
REMARK    5  A    between atoms: _10  and  _12
REMARK    6  A    between atoms: _12  and  _13
REMARK    7  A    between atoms: _12  and  _15
REMARK    8  A    between atoms: _15  and  _16
REMARK    9  A    between atoms: _19  and  _21
REMARK   10  A    between atoms: _21  and  _22
REMARK   11  A    between atoms: _21  and  _24
REMARK   12  A    between atoms: _24  and  _25
REMARK   13  A    between atoms: _30  and  _32
REMARK   14  A    between atoms: _32  and  _33
REMARK   15  A    between atoms: _32  and  _35
REMARK   16  A    between atoms: _35  and  _36
REMARK   17  A    between atoms: _36  and  _37
REMARK   18  A    between atoms: _37  and  _38
REMARK   19  A    between atoms: _47  and  _49
REMARK   20  A    between atoms: _49  and  _50
REMARK   21  A    between atoms: _49  and  _52
REMARK   22  A    between atoms: _52  and  _53
REMARK   23  A    between atoms: _56  and  _58
REMARK   24  A    between atoms: _58  and  _59
REMARK   25  A    between atoms: _58  and  _61
REMARK   26  A    between atoms: _61  and  _62
REMARK   27  A    between atoms: _62  and  _63
REMARK   28  A    between atoms: _63  and  _64
REMARK   29  A    between atoms: _64  and  _65
REMARK   30  A    between atoms: _69  and  _71
REMARK   31  A    between atoms: _71  and  _72
REMARK   32  A    between atoms: _71  and  _74
REMARK   33  A    between atoms: _74  and  _75
REMARK   34  A    between atoms: _80  and  _81
REMARK   35  A    between atoms: _83  and  _85
REMARK   36  A    between atoms: _85  and  _86
REMARK   37  A    between atoms: _85  and  _88
REMARK   38  A    between atoms: _88  and  _89
REMARK   39  A    between atoms: _99  and  _101
REMARK   40  A    between atoms: _101  and  _102
REMARK   41  A    between atoms: _101  and  _104
REMARK   42  A    between atoms: _104  and  _105
REMARK   43  A    between atoms: _105  and  _106
REMARK   44  A    between atoms: _106  and  _107
REMARK   45  A    between atoms: _107  and  _108
REMARK   46  A    between atoms: _112  and  _114
REMARK   47  A    between atoms: _114  and  _115
REMARK   48  A    between atoms: _114  and  _117
REMARK   49  A    between atoms: _117  and  _118
REMARK   50  A    between atoms: _118  and  _119
REMARK   51  A    between atoms: _124  and  _126
REMARK   52  A    between atoms: _126  and  _127
REMARK   53  A    between atoms: _126  and  _129
REMARK   54  A    between atoms: _129  and  _130
REMARK   55  A    between atoms: _132  and  _134
REMARK   56  A    between atoms: _134  and  _135
REMARK   57  A    between atoms: _134  and  _137
REMARK   58  A    between atoms: _137  and  _138
REMARK   59  A    between atoms: _143  and  _144
REMARK   60  A    between atoms: _146  and  _148
REMARK   61  A    between atoms: _148  and  _149
REMARK   62  A    between atoms: _148  and  _151
REMARK   63  A    between atoms: _151  and  _152
REMARK   64  A    between atoms: _157  and  _159
REMARK   65  A    between atoms: _159  and  _160
REMARK   66  A    between atoms: _159  and  _162
REMARK   67  A    between atoms: _162  and  _163
REMARK   68  A    between atoms: _166  and  _168
REMARK   69  A    between atoms: _168  and  _169
REMARK   70  A    between atoms: _168  and  _171
REMARK   71  A    between atoms: _171  and  _172
REMARK   72  A    between atoms: _172  and  _173
REMARK   73  A    between atoms: _173  and  _174
REMARK   74  A    between atoms: _183  and  _185
REMARK   75  A    between atoms: _185  and  _186
REMARK   76  A    between atoms: _185  and  _188
REMARK   77  A    between atoms: _188  and  _189
REMARK   78  A    between atoms: _194  and  _195
REMARK   79  A    between atoms: _197  and  _199
REMARK   80  A    between atoms: _199  and  _200
REMARK   81  A    between atoms: _199  and  _202
REMARK   82  A    between atoms: _202  and  _203
REMARK   83  A    between atoms: _209  and  _211
REMARK   84  A    between atoms: _211  and  _212
REMARK   85  A    between atoms: _211  and  _214
REMARK   86  A    between atoms: _214  and  _215
REMARK   87  A    between atoms: _215  and  _216
REMARK   88  A    between atoms: _216  and  _217
REMARK   89  A    between atoms: _226  and  _228
REMARK   90  A    between atoms: _228  and  _229
REMARK   91  A    between atoms: _228  and  _231
REMARK   92  A    between atoms: _231  and  _232
REMARK   93  A    between atoms: _237  and  _239
REMARK   94  A    between atoms: _239  and  _240
REMARK   95  A    between atoms: _243  and  _245
REMARK   96  A    between atoms: _245  and  _246
REMARK   97  A    between atoms: _245  and  _248
REMARK   98  A    between atoms: _248  and  _249
REMARK   99  A    between atoms: _249  and  _250
REMARK  100  A    between atoms: _250  and  _251
REMARK  101  A    between atoms: _251  and  _252
REMARK  102  A    between atoms: _256  and  _258
REMARK  103  A    between atoms: _258  and  _259
REMARK  104  A    between atoms: _258  and  _261
REMARK  105  A    between atoms: _261  and  _262
REMARK  106  A    between atoms: _265  and  _267
REMARK  107  A    between atoms: _267  and  _268
REMARK  108  A    between atoms: _267  and  _270
REMARK  109  A    between atoms: _270  and  _271
REMARK  110  A    between atoms: _271  and  _272
REMARK  111  A    between atoms: _272  and  _274
REMARK  112  A    between atoms: _275  and  _277
REMARK  113  A    between atoms: _277  and  _278
REMARK  114  A    between atoms: _277  and  _280
REMARK  115  A    between atoms: _280  and  _281
REMARK  116  A    between atoms: _284  and  _286
REMARK  117  A    between atoms: _286  and  _287
REMARK  118  A    between atoms: _286  and  _289
REMARK  119  A    between atoms: _289  and  _290
REMARK  120  A    between atoms: _293  and  _295
REMARK  121  A    between atoms: _295  and  _296
REMARK  122  A    between atoms: _295  and  _298
REMARK  123  A    between atoms: _298  and  _299
REMARK  124  A    between atoms: _305  and  _306
REMARK  125  A    between atoms: _311  and  _313
REMARK  126  A    between atoms: _313  and  _314
REMARK  127  A    between atoms: _316  and  _318
REMARK  128  A    between atoms: _318  and  _319
REMARK  129  A    between atoms: _318  and  _321
REMARK  130  A    between atoms: _321  and  _322
REMARK  131  A    between atoms: _324  and  _326
REMARK  132  A    between atoms: _326  and  _327
REMARK  133  A    between atoms: _326  and  _329
REMARK  134  A    between atoms: _329  and  _330
REMARK  135  A    between atoms: _335  and  _336
REMARK  136  A    between atoms: _338  and  _340
REMARK  137  A    between atoms: _340  and  _341
REMARK  138  A    between atoms: _340  and  _343
REMARK  139  A    between atoms: _343  and  _344
REMARK  140  A    between atoms: _349  and  _350
REMARK  141  A    between atoms: _352  and  _354
REMARK  142  A    between atoms: _354  and  _355
REMARK  143  A    between atoms: _354  and  _357
REMARK  144  A    between atoms: _357  and  _358
REMARK  145  A    between atoms: _361  and  _363
REMARK  146  A    between atoms: _363  and  _364
REMARK                            x       y       z     vdW  Elec       q    Type
REMARK                         _______ _______ _______ _____ _____    ______ ____
ROOT
ATOM      1  CA  LYS A   2      10.803  -8.120  -4.090  0.00  0.00    +0.137 C 
ENDROOT
BRANCH   1   3
ATOM      2  C   ALA A   1       9.476  -9.445  -5.632  0.00  0.00    +0.238 C 
ATOM      3  N   LYS A   2       9.750  -9.076  -4.387  0.00  0.00    -0.298 N 
ATOM      4  H   LYS A   2       9.197  -9.481  -3.605  0.00  0.00    +0.150 HD
ATOM      5  O   ALA A   1      10.152  -9.097  -6.597  0.00  0.00    -0.274 OA
BRANCH   2   6
ATOM      6  CA  ALA A   1       8.271 -10.359  -5.812  0.00  0.00    +0.145 C 
ATOM      7  CB  ALA A   1       7.056  -9.550  -6.252  0.00  0.00    +0.028 C 
BRANCH   6   8
ATOM      8  N   ALA A   1       7.986 -11.102  -4.586  0.00  0.00    -0.238 NA
ATOM      9  H   ALA A   1       7.060 -10.998  -4.124  0.00  0.00    +0.142 HD
ENDBRANCH   6   8
ENDBRANCH   2   6
ENDBRANCH   1   3
BRANCH   1  10
ATOM     10  C   LYS A   2      12.085  -8.808  -3.623  0.00  0.00    +0.227 C 
ATOM     11  O   LYS A   2      13.068  -8.146  -3.293  0.00  0.00    -0.286 OA
ENDBRANCH   1  10
BRANCH   1  12
ATOM     12  CB  LYS A   2      10.316  -7.146  -3.022  0.00  0.00    +0.028 C 
BRANCH  12  13
ATOM     13  CG  LYS A   2      10.563  -5.697  -3.361  0.00  0.00    -0.000 C 
BRANCH  13  14
ATOM     14  CD  LYS A   2       9.430  -5.123  -4.184  0.00  0.00    -0.024 C 
BRANCH  14  15
ATOM     15  CE  LYS A   2       9.964  -4.036  -5.081  0.00  0.00    -0.086 C 
BRANCH  15  16
ATOM     16  NZ  LYS A   2       8.899  -3.153  -5.571  0.00  0.00    +0.380 N 
ATOM     17  HZ1 LYS A   2       8.424  -2.703  -4.763  0.00  0.00    -0.089 HD
ATOM     18  HZ2 LYS A   2       8.209  -3.712  -6.113  0.00  0.00    -0.089 HD
ATOM     19  HZ3 LYS A   2       9.312  -2.421  -6.184  0.00  0.00    -0.089 HD
ENDBRANCH  15  16
ENDBRANCH  14  15
ENDBRANCH  13  14
ENDBRANCH  12  13
ENDBRANCH   1  12
TORSDOF 9
REMARK  Name = ../refined-set-2016/3hzk/3hzk_pocket.pdb
REMARK  146 active torsions:
REMARK  status: ('A' for Active; 'I' for Inactive)
REMARK    1  A    between atoms: _1  and  _3
REMARK    2  A    between atoms: _3  and  _4
REMARK    3  A    between atoms: _3  and  _6
REMARK    4  A    between atoms: _6  and  _7
REMARK    5  A    between atoms: _10  and  _12
REMARK    6  A    between atoms: _12  and  _13
REMARK    7  A    between atoms: _12  and  _15
REMARK    8  A    between atoms: _15  and  _16
REMARK    9  A    between atoms: _19  and  _21
REMARK   10  A    between atoms: _21  and  _22
REMARK   11  A    between atoms: _21  and  _24
REMARK   12  A    between atoms: _24  and  _25
REMARK   13  A    between atoms: _30  and  _32
REMARK   14  A    between atoms: _32  and  _33
REMARK   15  A    between atoms: _32  and  _35
REMARK   16  A    between atoms: _35  and  _36
REMARK   17  A    between atoms: _36  and  _37
REMARK   18  A    between atoms: _37  and  _38
REMARK   19  A    between atoms: _47  and  _49
REMARK   20  A    between atoms: _49  and  _50
REMARK   21  A    between atoms: _49  and  _52
REMARK   22  A    between atoms: _52  and  _53
REMARK   23  A    between atoms: _56  and  _58
REMARK   24  A    between atoms: _58  and  _59
REMARK   25  A    between atoms: _58  and  _61
REMARK   26  A    between atoms: _61  and  _62
REMARK   27  A    between atoms: _62  and  _63
REMARK   28  A    between atoms: _63  and  _64
REMARK   29  A    between atoms: _64  and  _65
REMARK   30  A    between atoms: _69  and  _71
REMARK   31  A    between atoms: _71  and  _72
REMARK   32  A    between atoms: _71  and  _74
REMARK   33  A    between atoms: _74  and  _75
REMARK   34  A    between atoms: _80  and  _81
REMARK   35  A    between atoms: _83  and  _85
REMARK   36  A    between atoms: _85  and  _86
REMARK   37  A    between atoms: _85  and  _88
REMARK   38  A    between atoms: _88  and  _89
REMARK   39  A    between atoms: _99  and  _101
REMARK   40  A    between atoms: _101  and  _102
REMARK   41  A    between atoms: _101  and  _104
REMARK   42  A    between atoms: _104  and  _105
REMARK   43  A    between atoms: _105  and  _106
REMARK   44  A    between atoms: _106  and  _107
REMARK   45  A    between atoms: _107  and  _108
REMARK   46  A    between atoms: _112  and  _114
REMARK   47  A    between atoms: _114  and  _115
REMARK   48  A    between atoms: _114  and  _117
REMARK   49  A    between atoms: _117  and  _118
REMARK   50  A    between atoms: _118  and  _119
REMARK   51  A    between atoms: _124  and  _126
REMARK   52  A    between atoms: _126  and  _127
REMARK   53  A    between atoms: _126  and  _129
REMARK   54  A    between atoms: _129  and  _130
REMARK   55  A    between atoms: _132  and  _134
REMARK   56  A    between atoms: _134  and  _135
REMARK   57  A    between atoms: _134  and  _137
REMARK   58  A    between atoms: _137  and  _138
REMARK   59  A    between atoms: _143  and  _144
REMARK   60  A    between atoms: _146  and  _148
REMARK   61  A    between atoms: _148  and  _149
REMARK   62  A    between atoms: _148  and  _151
REMARK   63  A    between atoms: _151  and  _152
REMARK   64  A    between atoms: _157  and  _159
REMARK   65  A    between atoms: _159  and  _160
REMARK   66  A    between atoms: _159  and  _162
REMARK   67  A    between atoms: _162  and  _163
REMARK   68  A    between atoms: _166  and  _168
REMARK   69  A    between atoms: _168  and  _169
REMARK   70  A    between atoms: _168  and  _171
REMARK   71  A    between atoms: _171  and  _172
REMARK   72  A    between atoms: _172  and  _173
REMARK   73  A    between atoms: _173  and  _174
REMARK   74  A    between atoms: _183  and  _185
REMARK   75  A    between atoms: _185  and  _186
REMARK   76  A    between atoms: _185  and  _188
REMARK   77  A    between atoms: _188  and  _189
REMARK   78  A    between atoms: _194  and  _195
REMARK   79  A    between atoms: _197  and  _199
REMARK   80  A    between atoms: _199  and  _200
REMARK   81  A    between atoms: _199  and  _202
REMARK   82  A    between atoms: _202  and  _203
REMARK   83  A    between atoms: _209  and  _211
REMARK   84  A    between atoms: _211  and  _212
REMARK   85  A    between atoms: _211  and  _214
REMARK   86  A    between atoms: _214  and  _215
REMARK   87  A    between atoms: _215  and  _216
REMARK   88  A    between atoms: _216  and  _217
REMARK   89  A    between atoms: _226  and  _228
REMARK   90  A    between atoms: _228  and  _229
REMARK   91  A    between atoms: _228  and  _231
REMARK   92  A    between atoms: _231  and  _232
REMARK   93  A    between atoms: _237  and  _239
REMARK   94  A    between atoms: _239  and  _240
REMARK   95  A    between atoms: _243  and  _245
REMARK   96  A    between atoms: _245  and  _246
REMARK   97  A    between atoms: _245  and  _248
REMARK   98  A    between atoms: _248  and  _249
REMARK   99  A    between atoms: _249  and  _250
REMARK  100  A    between atoms: _250  and  _251
REMARK  101  A    between atoms: _251  and  _252
REMARK  102  A    between atoms: _256  and  _258
REMARK  103  A    between atoms: _258  and  _259
REMARK  104  A    between atoms: _258  and  _261
REMARK  105  A    between atoms: _261  and  _262
REMARK  106  A    between atoms: _265  and  _267
REMARK  107  A    between atoms: _267  and  _268
REMARK  108  A    between atoms: _267  and  _270
REMARK  109  A    between atoms: _270  and  _271
REMARK  110  A    between atoms: _271  and  _272
REMARK  111  A    between atoms: _272  and  _274
REMARK  112  A    between atoms: _275  and  _277
REMARK  113  A    between atoms: _277  and  _278
REMARK  114  A    between atoms: _277  and  _280
REMARK  115  A    between atoms: _280  and  _281
REMARK  116  A    between atoms: _284  and  _286
REMARK  117  A    between atoms: _286  and  _287
REMARK  118  A    between atoms: _286  and  _289
REMARK  119  A    between atoms: _289  and  _290
REMARK  120  A    between atoms: _293  and  _295
REMARK  121  A    between atoms: _295  and  _296
REMARK  122  A    between atoms: _295  and  _298
REMARK  123  A    between atoms: _298  and  _299
REMARK  124  A    between atoms: _305  and  _306
REMARK  125  A    between atoms: _311  and  _313
REMARK  126  A    between atoms: _313  and  _314
REMARK  127  A    between atoms: _316  and  _318
REMARK  128  A    between atoms: _318  and  _319
REMARK  129  A    between atoms: _318  and  _321
REMARK  130  A    between atoms: _321  and  _322
REMARK  131  A    between atoms: _324  and  _326
REMARK  132  A    between atoms: _326  and  _327
REMARK  133  A    between atoms: _326  and  _329
REMARK  134  A    between atoms: _329  and  _330
REMARK  135  A    between atoms: _335  and  _336
REMARK  136  A    between atoms: _338  and  _340
REMARK  137  A    between atoms: _340  and  _341
REMARK  138  A    between atoms: _340  and  _343
REMARK  139  A    between atoms: _343  and  _344
REMARK  140  A    between atoms: _349  and  _350
REMARK  141  A    between atoms: _352  and  _354
REMARK  142  A    between atoms: _354  and  _355
REMARK  143  A    between atoms: _354  and  _357
REMARK  144  A    between atoms: _357  and  _358
REMARK  145  A    between atoms: _361  and  _363
REMARK  146  A    between atoms: _363  and  _364
REMARK                            x       y       z     vdW  Elec       q    Type
REMARK                         _______ _______ _______ _____ _____    ______ ____
ROOT
ATOM      1  CA  THR A   1      15.181  -8.076   0.987  0.00  0.00    +0.160 C 
ENDROOT
BRANCH   1   2
ATOM      2  N   THR A   1      14.101  -8.912   0.457  0.00  0.00    -0.237 NA
ATOM      3  H   THR A   1      13.572  -8.599  -0.381  0.00  0.00    +0.142 HD
ENDBRANCH   1   2
BRANCH   1   4
ATOM      4  C   THR A   1      14.761  -7.400   2.295  0.00  0.00    +0.227 C 
ATOM      5  O   THR A   1      13.573  -7.293   2.582  0.00  0.00    -0.287 OA
ENDBRANCH   1   4
BRANCH   1   6
ATOM      6  CB  THR A   1      15.607  -7.011  -0.029  0.00  0.00    +0.134 C 
ATOM      7  CG2 THR A   1      16.243  -7.682  -1.237  0.00  0.00    +0.034 C 
BRANCH   6   8
ATOM      8  OG1 THR A   1      14.452  -6.273  -0.449  0.00  0.00    -0.383 OA
ATOM      9  HG1 THR A   1      14.723  -5.584  -1.106  0.00  0.00    +0.210 HD
ENDBRANCH   6   8
ENDBRANCH   1   6
TORSDOF 4
REMARK  Name = ../refined-set-2016/3hzk/3hzk_pocket.pdb
REMARK  146 active torsions:
REMARK  status: ('A' for Active; 'I' for Inactive)
REMARK    1  A    between atoms: _1  and  _3
REMARK    2  A    between atoms: _3  and  _4
REMARK    3  A    between atoms: _3  and  _6
REMARK    4  A    between atoms: _6  and  _7
REMARK    5  A    between atoms: _10  and  _12
REMARK    6  A    between atoms: _12  and  _13
REMARK    7  A    between atoms: _12  and  _15
REMARK    8  A    between atoms: _15  and  _16
REMARK    9  A    between atoms: _19  and  _21
REMARK   10  A    between atoms: _21  and  _22
REMARK   11  A    between atoms: _21  and  _24
REMARK   12  A    between atoms: _24  and  _25
REMARK   13  A    between atoms: _30  and  _32
REMARK   14  A    between atoms: _32  and  _33
REMARK   15  A    between atoms: _32  and  _35
REMARK   16  A    between atoms: _35  and  _36
REMARK   17  A    between atoms: _36  and  _37
REMARK   18  A    between atoms: _37  and  _38
REMARK   19  A    between atoms: _47  and  _49
REMARK   20  A    between atoms: _49  and  _50
REMARK   21  A    between atoms: _49  and  _52
REMARK   22  A    between atoms: _52  and  _53
REMARK   23  A    between atoms: _56  and  _58
REMARK   24  A    between atoms: _58  and  _59
REMARK   25  A    between atoms: _58  and  _61
REMARK   26  A    between atoms: _61  and  _62
REMARK   27  A    between atoms: _62  and  _63
REMARK   28  A    between atoms: _63  and  _64
REMARK   29  A    between atoms: _64  and  _65
REMARK   30  A    between atoms: _69  and  _71
REMARK   31  A    between atoms: _71  and  _72
REMARK   32  A    between atoms: _71  and  _74
REMARK   33  A    between atoms: _74  and  _75
REMARK   34  A    between atoms: _80  and  _81
REMARK   35  A    between atoms: _83  and  _85
REMARK   36  A    between atoms: _85  and  _86
REMARK   37  A    between atoms: _85  and  _88
REMARK   38  A    between atoms: _88  and  _89
REMARK   39  A    between atoms: _99  and  _101
REMARK   40  A    between atoms: _101  and  _102
REMARK   41  A    between atoms: _101  and  _104
REMARK   42  A    between atoms: _104  and  _105
REMARK   43  A    between atoms: _105  and  _106
REMARK   44  A    between atoms: _106  and  _107
REMARK   45  A    between atoms: _107  and  _108
REMARK   46  A    between atoms: _112  and  _114
REMARK   47  A    between atoms: _114  and  _115
REMARK   48  A    between atoms: _114  and  _117
REMARK   49  A    between atoms: _117  and  _118
REMARK   50  A    between atoms: _118  and  _119
REMARK   51  A    between atoms: _124  and  _126
REMARK   52  A    between atoms: _126  and  _127
REMARK   53  A    between atoms: _126  and  _129
REMARK   54  A    between atoms: _129  and  _130
REMARK   55  A    between atoms: _132  and  _134
REMARK   56  A    between atoms: _134  and  _135
REMARK   57  A    between atoms: _134  and  _137
REMARK   58  A    between atoms: _137  and  _138
REMARK   59  A    between atoms: _143  and  _144
REMARK   60  A    between atoms: _146  and  _148
REMARK   61  A    between atoms: _148  and  _149
REMARK   62  A    between atoms: _148  and  _151
REMARK   63  A    between atoms: _151  and  _152
REMARK   64  A    between atoms: _157  and  _159
REMARK   65  A    between atoms: _159  and  _160
REMARK   66  A    between atoms: _159  and  _162
REMARK   67  A    between atoms: _162  and  _163
REMARK   68  A    between atoms: _166  and  _168
REMARK   69  A    between atoms: _168  and  _169
REMARK   70  A    between atoms: _168  and  _171
REMARK   71  A    between atoms: _171  and  _172
REMARK   72  A    between atoms: _172  and  _173
REMARK   73  A    between atoms: _173  and  _174
REMARK   74  A    between atoms: _183  and  _185
REMARK   75  A    between atoms: _185  and  _186
REMARK   76  A    between atoms: _185  and  _188
REMARK   77  A    between atoms: _188  and  _189
REMARK   78  A    between atoms: _194  and  _195
REMARK   79  A    between atoms: _197  and  _199
REMARK   80  A    between atoms: _199  and  _200
REMARK   81  A    between atoms: _199  and  _202
REMARK   82  A    between atoms: _202  and  _203
REMARK   83  A    between atoms: _209  and  _211
REMARK   84  A    between atoms: _211  and  _212
REMARK   85  A    between atoms: _211  and  _214
REMARK   86  A    between atoms: _214  and  _215
REMARK   87  A    between atoms: _215  and  _216
REMARK   88  A    between atoms: _216  and  _217
REMARK   89  A    between atoms: _226  and  _228
REMARK   90  A    between atoms: _228  and  _229
REMARK   91  A    between atoms: _228  and  _231
REMARK   92  A    between atoms: _231  and  _232
REMARK   93  A    between atoms: _237  and  _239
REMARK   94  A    between atoms: _239  and  _240
REMARK   95  A    between atoms: _243  and  _245
REMARK   96  A    between atoms: _245  and  _246
REMARK   97  A    between atoms: _245  and  _248
REMARK   98  A    between atoms: _248  and  _249
REMARK   99  A    between atoms: _249  and  _250
REMARK  100  A    between atoms: _250  and  _251
REMARK  101  A    between atoms: _251  and  _252
REMARK  102  A    between atoms: _256  and  _258
REMARK  103  A    between atoms: _258  and  _259
REMARK  104  A    between atoms: _258  and  _261
REMARK  105  A    between atoms: _261  and  _262
REMARK  106  A    between atoms: _265  and  _267
REMARK  107  A    between atoms: _267  and  _268
REMARK  108  A    between atoms: _267  and  _270
REMARK  109  A    between atoms: _270  and  _271
REMARK  110  A    between atoms: _271  and  _272
REMARK  111  A    between atoms: _272  and  _274
REMARK  112  A    between atoms: _275  and  _277
REMARK  113  A    between atoms: _277  and  _278
REMARK  114  A    between atoms: _277  and  _280
REMARK  115  A    between atoms: _280  and  _281
REMARK  116  A    between atoms: _284  and  _286
REMARK  117  A    between atoms: _286  and  _287
REMARK  118  A    between atoms: _286  and  _289
REMARK  119  A    between atoms: _289  and  _290
REMARK  120  A    between atoms: _293  and  _295
REMARK  121  A    between atoms: _295  and  _296
REMARK  122  A    between atoms: _295  and  _298
REMARK  123  A    between atoms: _298  and  _299
REMARK  124  A    between atoms: _305  and  _306
REMARK  125  A    between atoms: _311  and  _313
REMARK  126  A    between atoms: _313  and  _314
REMARK  127  A    between atoms: _316  and  _318
REMARK  128  A    between atoms: _318  and  _319
REMARK  129  A    between atoms: _318  and  _321
REMARK  130  A    between atoms: _321  and  _322
REMARK  131  A    between atoms: _324  and  _326
REMARK  132  A    between atoms: _326  and  _327
REMARK  133  A    between atoms: _326  and  _329
REMARK  134  A    between atoms: _329  and  _330
REMARK  135  A    between atoms: _335  and  _336
REMARK  136  A    between atoms: _338  and  _340
REMARK  137  A    between atoms: _340  and  _341
REMARK  138  A    between atoms: _340  and  _343
REMARK  139  A    between atoms: _343  and  _344
REMARK  140  A    between atoms: _349  and  _350
REMARK  141  A    between atoms: _352  and  _354
REMARK  142  A    between atoms: _354  and  _355
REMARK  143  A    between atoms: _354  and  _357
REMARK  144  A    between atoms: _357  and  _358
REMARK  145  A    between atoms: _361  and  _363
REMARK  146  A    between atoms: _363  and  _364
REMARK                            x       y       z     vdW  Elec       q    Type
REMARK                         _______ _______ _______ _____ _____    ______ ____
ROOT
ATOM      1  C   UNK     1      14.936  -1.815   5.291  0.00  0.00    +0.000 C 
ENDROOT
BRANCH   1   2
ATOM      2  C   UNK     1      15.738  -2.930   5.951  0.00  0.00    +0.000 C 
BRANCH   2   3
ATOM      3  N   UNK     1      15.271  -4.261   5.548  0.00  0.00    +0.000 NA
ATOM      4  H   UNK     1      14.432  -4.668   6.008  0.00  0.00    +0.000 HD
ENDBRANCH   2   3
BRANCH   2   5
ATOM      5  C   UNK     1      15.620  -2.782   7.454  0.00  0.00    +0.000 C 
ATOM      6  O   UNK     1      14.799  -3.450   8.081  0.00  0.00    +0.000 OA
ENDBRANCH   2   5
ENDBRANCH   1   2
BRANCH   1   7
ATOM      7  C   UNK     1      14.734  -1.979   3.821  0.00  0.00    +0.000 C 
BRANCH   7   8
ATOM      8  C   UNK     1      15.956  -1.609   3.020  0.00  0.00    +0.000 C 
ATOM      9  O   UNK     1      16.924  -1.074   3.605  0.00  0.00    +0.000 OA
BRANCH   8  10
ATOM     10  O   UNK     1      15.930  -1.850   1.795  0.00  0.00    +0.000 OA
ATOM     11 ZN   UNK     1      17.577  -1.502   0.547  0.00  0.00    +0.000 Zn
ENDBRANCH   8  10
ENDBRANCH   7   8
ENDBRANCH   1   7
TORSDOF 6
REMARK  Name = ../refined-set-2016/3hzk/3hzk_pocket.pdb
REMARK  146 active torsions:
REMARK  status: ('A' for Active; 'I' for Inactive)
REMARK    1  A    between atoms: _1  and  _3
REMARK    2  A    between atoms: _3  and  _4
REMARK    3  A    between atoms: _3  and  _6
REMARK    4  A    between atoms: _6  and  _7
REMARK    5  A    between atoms: _10  and  _12
REMARK    6  A    between atoms: _12  and  _13
REMARK    7  A    between atoms: _12  and  _15
REMARK    8  A    between atoms: _15  and  _16
REMARK    9  A    between atoms: _19  and  _21
REMARK   10  A    between atoms: _21  and  _22
REMARK   11  A    between atoms: _21  and  _24
REMARK   12  A    between atoms: _24  and  _25
REMARK   13  A    between atoms: _30  and  _32
REMARK   14  A    between atoms: _32  and  _33
REMARK   15  A    between atoms: _32  and  _35
REMARK   16  A    between atoms: _35  and  _36
REMARK   17  A    between atoms: _36  and  _37
REMARK   18  A    between atoms: _37  and  _38
REMARK   19  A    between atoms: _47  and  _49
REMARK   20  A    between atoms: _49  and  _50
REMARK   21  A    between atoms: _49  and  _52
REMARK   22  A    between atoms: _52  and  _53
REMARK   23  A    between atoms: _56  and  _58
REMARK   24  A    between atoms: _58  and  _59
REMARK   25  A    between atoms: _58  and  _61
REMARK   26  A    between atoms: _61  and  _62
REMARK   27  A    between atoms: _62  and  _63
REMARK   28  A    between atoms: _63  and  _64
REMARK   29  A    between atoms: _64  and  _65
REMARK   30  A    between atoms: _69  and  _71
REMARK   31  A    between atoms: _71  and  _72
REMARK   32  A    between atoms: _71  and  _74
REMARK   33  A    between atoms: _74  and  _75
REMARK   34  A    between atoms: _80  and  _81
REMARK   35  A    between atoms: _83  and  _85
REMARK   36  A    between atoms: _85  and  _86
REMARK   37  A    between atoms: _85  and  _88
REMARK   38  A    between atoms: _88  and  _89
REMARK   39  A    between atoms: _99  and  _101
REMARK   40  A    between atoms: _101  and  _102
REMARK   41  A    between atoms: _101  and  _104
REMARK   42  A    between atoms: _104  and  _105
REMARK   43  A    between atoms: _105  and  _106
REMARK   44  A    between atoms: _106  and  _107
REMARK   45  A    between atoms: _107  and  _108
REMARK   46  A    between atoms: _112  and  _114
REMARK   47  A    between atoms: _114  and  _115
REMARK   48  A    between atoms: _114  and  _117
REMARK   49  A    between atoms: _117  and  _118
REMARK   50  A    between atoms: _118  and  _119
REMARK   51  A    between atoms: _124  and  _126
REMARK   52  A    between atoms: _126  and  _127
REMARK   53  A    between atoms: _126  and  _129
REMARK   54  A    between atoms: _129  and  _130
REMARK   55  A    between atoms: _132  and  _134
REMARK   56  A    between atoms: _134  and  _135
REMARK   57  A    between atoms: _134  and  _137
REMARK   58  A    between atoms: _137  and  _138
REMARK   59  A    between atoms: _143  and  _144
REMARK   60  A    between atoms: _146  and  _148
REMARK   61  A    between atoms: _148  and  _149
REMARK   62  A    between atoms: _148  and  _151
REMARK   63  A    between atoms: _151  and  _152
REMARK   64  A    between atoms: _157  and  _159
REMARK   65  A    between atoms: _159  and  _160
REMARK   66  A    between atoms: _159  and  _162
REMARK   67  A    between atoms: _162  and  _163
REMARK   68  A    between atoms: _166  and  _168
REMARK   69  A    between atoms: _168  and  _169
REMARK   70  A    between atoms: _168  and  _171
REMARK   71  A    between atoms: _171  and  _172
REMARK   72  A    between atoms: _172  and  _173
REMARK   73  A    between atoms: _173  and  _174
REMARK   74  A    between atoms: _183  and  _185
REMARK   75  A    between atoms: _185  and  _186
REMARK   76  A    between atoms: _185  and  _188
REMARK   77  A    between atoms: _188  and  _189
REMARK   78  A    between atoms: _194  and  _195
REMARK   79  A    between atoms: _197  and  _199
REMARK   80  A    between atoms: _199  and  _200
REMARK   81  A    between atoms: _199  and  _202
REMARK   82  A    between atoms: _202  and  _203
REMARK   83  A    between atoms: _209  and  _211
REMARK   84  A    between atoms: _211  and  _212
REMARK   85  A    between atoms: _211  and  _214
REMARK   86  A    between atoms: _214  and  _215
REMARK   87  A    between atoms: _215  and  _216
REMARK   88  A    between atoms: _216  and  _217
REMARK   89  A    between atoms: _226  and  _228
REMARK   90  A    between atoms: _228  and  _229
REMARK   91  A    between atoms: _228  and  _231
REMARK   92  A    between atoms: _231  and  _232
REMARK   93  A    between atoms: _237  and  _239
REMARK   94  A    between atoms: _239  and  _240
REMARK   95  A    between atoms: _243  and  _245
REMARK   96  A    between atoms: _245  and  _246
REMARK   97  A    between atoms: _245  and  _248
REMARK   98  A    between atoms: _248  and  _249
REMARK   99  A    between atoms: _249  and  _250
REMARK  100  A    between atoms: _250  and  _251
REMARK  101  A    between atoms: _251  and  _252
REMARK  102  A    between atoms: _256  and  _258
REMARK  103  A    between atoms: _258  and  _259
REMARK  104  A    between atoms: _258  and  _261
REMARK  105  A    between atoms: _261  and  _262
REMARK  106  A    between atoms: _265  and  _267
REMARK  107  A    between atoms: _267  and  _268
REMARK  108  A    between atoms: _267  and  _270
REMARK  109  A    between atoms: _270  and  _271
REMARK  110  A    between atoms: _271  and  _272
REMARK  111  A    between atoms: _272  and  _274
REMARK  112  A    between atoms: _275  and  _277
REMARK  113  A    between atoms: _277  and  _278
REMARK  114  A    between atoms: _277  and  _280
REMARK  115  A    between atoms: _280  and  _281
REMARK  116  A    between atoms: _284  and  _286
REMARK  117  A    between atoms: _286  and  _287
REMARK  118  A    between atoms: _286  and  _289
REMARK  119  A    between atoms: _289  and  _290
REMARK  120  A    between atoms: _293  and  _295
REMARK  121  A    between atoms: _295  and  _296
REMARK  122  A    between atoms: _295  and  _298
REMARK  123  A    between atoms: _298  and  _299
REMARK  124  A    between atoms: _305  and  _306
REMARK  125  A    between atoms: _311  and  _313
REMARK  126  A    between atoms: _313  and  _314
REMARK  127  A    between atoms: _316  and  _318
REMARK  128  A    between atoms: _318  and  _319
REMARK  129  A    between atoms: _318  and  _321
REMARK  130  A    between atoms: _321  and  _322
REMARK  131  A    between atoms: _324  and  _326
REMARK  132  A    between atoms: _326  and  _327
REMARK  133  A    between atoms: _326  and  _329
REMARK  134  A    between atoms: _329  and  _330
REMARK  135  A    between atoms: _335  and  _336
REMARK  136  A    between atoms: _338  and  _340
REMARK  137  A    between atoms: _340  and  _341
REMARK  138  A    between atoms: _340  and  _343
REMARK  139  A    between atoms: _343  and  _344
REMARK  140  A    between atoms: _349  and  _350
REMARK  141  A    between atoms: _352  and  _354
REMARK  142  A    between atoms: _354  and  _355
REMARK  143  A    between atoms: _354  and  _357
REMARK  144  A    between atoms: _357  and  _358
REMARK  145  A    between atoms: _361  and  _363
REMARK  146  A    between atoms: _363  and  _364
REMARK                            x       y       z     vdW  Elec       q    Type
REMARK                         _______ _______ _______ _____ _____    ______ ____
ROOT
ATOM      1  CA  ASN A   3       1.773  -5.831  -0.850  0.00  0.00    +0.158 C 
ENDROOT
BRANCH   1   2
ATOM      2  C   ASN A   3       1.620  -4.891  -2.035  0.00  0.00    +0.244 C 
ATOM      3  N   PRO A   4       2.734  -4.301  -2.493  0.00  0.00    -0.272 N 
ATOM      4  CD  PRO A   4       4.105  -4.571  -2.026  0.00  0.00    +0.094 C 
ATOM      5  CG  PRO A   4       4.967  -3.797  -2.988  0.00  0.00    +0.024 C 
ATOM      6  CB  PRO A   4       4.114  -2.724  -3.586  0.00  0.00    +0.031 C 
ATOM      7  CA  PRO A   4       2.680  -3.266  -3.537  0.00  0.00    +0.152 C 
ATOM      8  O   ASN A   3       0.511  -4.680  -2.515  0.00  0.00    -0.273 OA
BRANCH   7   9
ATOM      9  C   PRO A   4       2.265  -3.802  -4.905  0.00  0.00    +0.241 C 
ATOM     10  N   GLY A   5       2.355  -5.115  -5.104  0.00  0.00    -0.295 N 
ATOM     11  H   GLY A   5       2.736  -5.720  -4.348  0.00  0.00    +0.150 HD
ATOM     12  O   PRO A   4       1.864  -3.012  -5.764  0.00  0.00    -0.273 OA
BRANCH  10  13
ATOM     13  CA  GLY A   5       1.931  -5.722  -6.359  0.00  0.00    +0.176 C 
BRANCH  13  14
ATOM     14  C   GLY A   5       0.448  -6.064  -6.386  0.00  0.00    +0.243 C 
ATOM     15  N   SER A   6      -0.211  -5.881  -5.246  0.00  0.00    -0.296 N 
ATOM     16  H   SER A   6       0.319  -5.552  -4.414  0.00  0.00    +0.150 HD
ATOM     17  O   GLY A   5      -0.086  -6.489  -7.408  0.00  0.00    -0.273 OA
BRANCH  15  18
ATOM     18  CA  SER A   6      -1.643  -6.120  -5.108  0.00  0.00    +0.166 C 
BRANCH  18  19
ATOM     19  C   SER A   6      -2.444  -5.021  -5.791  0.00  0.00    +0.229 C 
ATOM     20  O   SER A   6      -2.073  -3.844  -5.747  0.00  0.00    -0.286 OA
ENDBRANCH  18  19
BRANCH  18  21
ATOM     21  CB  SER A   6      -2.022  -6.178  -3.623  0.00  0.00    +0.165 C 
BRANCH  21  22
ATOM     22  OG  SER A   6      -3.409  -6.429  -3.449  0.00  0.00    -0.380 OA
ATOM     23  H   SER A   6      -3.619  -6.460  -2.482  0.00  0.00    +0.211 HD
ENDBRANCH  21  22
ENDBRANCH  18  21
ENDBRANCH  15  18
ENDBRANCH  13  14
ENDBRANCH  10  13
ENDBRANCH   7   9
ENDBRANCH   1   2
BRANCH   1  26
ATOM     24  C   ILE A   2       2.560  -4.929   1.267  0.00  0.00    +0.241 C 
ATOM     25  O   ILE A   2       3.543  -5.666   1.307  0.00  0.00    -0.273 OA
ATOM     26  N   ASN A   3       1.597  -5.047   0.359  0.00  0.00    -0.297 N 
ATOM     27  H   ASN A   3       0.690  -4.563   0.519  0.00  0.00    +0.150 HD
BRANCH  24  28
ATOM     28  CA  ILE A   2       2.376  -3.792   2.271  0.00  0.00    +0.148 C 
BRANCH  28  31
ATOM     29  C   ASP A   1       2.496  -4.728   4.530  0.00  0.00    +0.239 C 
ATOM     30  O   ASP A   1       1.565  -5.510   4.341  0.00  0.00    -0.274 OA
ATOM     31  N   ILE A   2       3.028  -3.991   3.565  0.00  0.00    -0.297 N 
ATOM     32  H   ILE A   2       3.947  -3.535   3.735  0.00  0.00    +0.150 HD
BRANCH  29  33
ATOM     33  CA  ASP A   1       3.130  -4.583   5.917  0.00  0.00    +0.156 C 
BRANCH  33  34
ATOM     34  N   ASP A   1       2.830  -5.760   6.708  0.00  0.00    -0.238 NA
ATOM     35  H   ASP A   1       3.414  -6.612   6.588  0.00  0.00    +0.142 HD
ENDBRANCH  33  34
BRANCH  33  36
ATOM     36  CB  ASP A   1       4.649  -4.392   5.819  0.00  0.00    +0.140 C 
BRANCH  36  37
ATOM     37  CG  ASP A   1       5.064  -2.922   5.806  0.00  0.00    +0.367 C 
ATOM     38  OD2 ASP A   1       5.923  -2.550   6.634  0.00  0.00    -0.246 OA
ATOM     39  OD1 ASP A   1       4.544  -2.144   4.977  0.00  0.00    -0.246 OA
ENDBRANCH  36  37
ENDBRANCH  33  36
ENDBRANCH  29  33
ENDBRANCH  28  31
BRANCH  28  40
ATOM     40  CB  ILE A   2       2.895  -2.501   1.590  0.00  0.00    +0.027 C 
ATOM     41  CG2 ILE A   2       2.675  -1.293   2.484  0.00  0.00    +0.002 C 
BRANCH  40  42
ATOM     42  CG1 ILE A   2       4.380  -2.650   1.232  0.00  0.00    +0.002 C 
ATOM     43  CD1 ILE A   2       4.957  -1.488   0.417  0.00  0.00    +0.000 C 
ENDBRANCH  40  42
ENDBRANCH  28  40
ENDBRANCH  24  28
ENDBRANCH   1  26
BRANCH   1  44
ATOM     44  CB  ASN A   3       0.742  -6.959  -0.927  0.00  0.00    +0.114 C 
BRANCH  44  45
ATOM     45  CG  ASN A   3       0.866  -7.778  -2.205  0.00  0.00    +0.222 C 
ATOM     46  ND2 ASN A   3      -0.105  -8.658  -2.442  0.00  0.00    -0.329 N 
ATOM     47 HD21 ASN A   3      -0.893  -8.757  -1.770  0.00  0.00    +0.145 HD
ATOM     48 HD22 ASN A   3      -0.076  -9.246  -3.299  0.00  0.00    +0.145 HD
ATOM     49  OD1 ASN A   3       1.823  -7.620  -2.968  0.00  0.00    -0.275 OA
ENDBRANCH  44  45
ENDBRANCH   1  44
TORSDOF 19
REMARK  Name = ../refined-set-2016/3hzk/3hzk_pocket.pdb
REMARK  146 active torsions:
REMARK  status: ('A' for Active; 'I' for Inactive)
REMARK    1  A    between atoms: _1  and  _3
REMARK    2  A    between atoms: _3  and  _4
REMARK    3  A    between atoms: _3  and  _6
REMARK    4  A    between atoms: _6  and  _7
REMARK    5  A    between atoms: _10  and  _12
REMARK    6  A    between atoms: _12  and  _13
REMARK    7  A    between atoms: _12  and  _15
REMARK    8  A    between atoms: _15  and  _16
REMARK    9  A    between atoms: _19  and  _21
REMARK   10  A    between atoms: _21  and  _22
REMARK   11  A    between atoms: _21  and  _24
REMARK   12  A    between atoms: _24  and  _25
REMARK   13  A    between atoms: _30  and  _32
REMARK   14  A    between atoms: _32  and  _33
REMARK   15  A    between atoms: _32  and  _35
REMARK   16  A    between atoms: _35  and  _36
REMARK   17  A    between atoms: _36  and  _37
REMARK   18  A    between atoms: _37  and  _38
REMARK   19  A    between atoms: _47  and  _49
REMARK   20  A    between atoms: _49  and  _50
REMARK   21  A    between atoms: _49  and  _52
REMARK   22  A    between atoms: _52  and  _53
REMARK   23  A    between atoms: _56  and  _58
REMARK   24  A    between atoms: _58  and  _59
REMARK   25  A    between atoms: _58  and  _61
REMARK   26  A    between atoms: _61  and  _62
REMARK   27  A    between atoms: _62  and  _63
REMARK   28  A    between atoms: _63  and  _64
REMARK   29  A    between atoms: _64  and  _65
REMARK   30  A    between atoms: _69  and  _71
REMARK   31  A    between atoms: _71  and  _72
REMARK   32  A    between atoms: _71  and  _74
REMARK   33  A    between atoms: _74  and  _75
REMARK   34  A    between atoms: _80  and  _81
REMARK   35  A    between atoms: _83  and  _85
REMARK   36  A    between atoms: _85  and  _86
REMARK   37  A    between atoms: _85  and  _88
REMARK   38  A    between atoms: _88  and  _89
REMARK   39  A    between atoms: _99  and  _101
REMARK   40  A    between atoms: _101  and  _102
REMARK   41  A    between atoms: _101  and  _104
REMARK   42  A    between atoms: _104  and  _105
REMARK   43  A    between atoms: _105  and  _106
REMARK   44  A    between atoms: _106  and  _107
REMARK   45  A    between atoms: _107  and  _108
REMARK   46  A    between atoms: _112  and  _114
REMARK   47  A    between atoms: _114  and  _115
REMARK   48  A    between atoms: _114  and  _117
REMARK   49  A    between atoms: _117  and  _118
REMARK   50  A    between atoms: _118  and  _119
REMARK   51  A    between atoms: _124  and  _126
REMARK   52  A    between atoms: _126  and  _127
REMARK   53  A    between atoms: _126  and  _129
REMARK   54  A    between atoms: _129  and  _130
REMARK   55  A    between atoms: _132  and  _134
REMARK   56  A    between atoms: _134  and  _135
REMARK   57  A    between atoms: _134  and  _137
REMARK   58  A    between atoms: _137  and  _138
REMARK   59  A    between atoms: _143  and  _144
REMARK   60  A    between atoms: _146  and  _148
REMARK   61  A    between atoms: _148  and  _149
REMARK   62  A    between atoms: _148  and  _151
REMARK   63  A    between atoms: _151  and  _152
REMARK   64  A    between atoms: _157  and  _159
REMARK   65  A    between atoms: _159  and  _160
REMARK   66  A    between atoms: _159  and  _162
REMARK   67  A    between atoms: _162  and  _163
REMARK   68  A    between atoms: _166  and  _168
REMARK   69  A    between atoms: _168  and  _169
REMARK   70  A    between atoms: _168  and  _171
REMARK   71  A    between atoms: _171  and  _172
REMARK   72  A    between atoms: _172  and  _173
REMARK   73  A    between atoms: _173  and  _174
REMARK   74  A    between atoms: _183  and  _185
REMARK   75  A    between atoms: _185  and  _186
REMARK   76  A    between atoms: _185  and  _188
REMARK   77  A    between atoms: _188  and  _189
REMARK   78  A    between atoms: _194  and  _195
REMARK   79  A    between atoms: _197  and  _199
REMARK   80  A    between atoms: _199  and  _200
REMARK   81  A    between atoms: _199  and  _202
REMARK   82  A    between atoms: _202  and  _203
REMARK   83  A    between atoms: _209  and  _211
REMARK   84  A    between atoms: _211  and  _212
REMARK   85  A    between atoms: _211  and  _214
REMARK   86  A    between atoms: _214  and  _215
REMARK   87  A    between atoms: _215  and  _216
REMARK   88  A    between atoms: _216  and  _217
REMARK   89  A    between atoms: _226  and  _228
REMARK   90  A    between atoms: _228  and  _229
REMARK   91  A    between atoms: _228  and  _231
REMARK   92  A    between atoms: _231  and  _232
REMARK   93  A    between atoms: _237  and  _239
REMARK   94  A    between atoms: _239  and  _240
REMARK   95  A    between atoms: _243  and  _245
REMARK   96  A    between atoms: _245  and  _246
REMARK   97  A    between atoms: _245  and  _248
REMARK   98  A    between atoms: _248  and  _249
REMARK   99  A    between atoms: _249  and  _250
REMARK  100  A    between atoms: _250  and  _251
REMARK  101  A    between atoms: _251  and  _252
REMARK  102  A    between atoms: _256  and  _258
REMARK  103  A    between atoms: _258  and  _259
REMARK  104  A    between atoms: _258  and  _261
REMARK  105  A    between atoms: _261  and  _262
REMARK  106  A    between atoms: _265  and  _267
REMARK  107  A    between atoms: _267  and  _268
REMARK  108  A    between atoms: _267  and  _270
REMARK  109  A    between atoms: _270  and  _271
REMARK  110  A    between atoms: _271  and  _272
REMARK  111  A    between atoms: _272  and  _274
REMARK  112  A    between atoms: _275  and  _277
REMARK  113  A    between atoms: _277  and  _278
REMARK  114  A    between atoms: _277  and  _280
REMARK  115  A    between atoms: _280  and  _281
REMARK  116  A    between atoms: _284  and  _286
REMARK  117  A    between atoms: _286  and  _287
REMARK  118  A    between atoms: _286  and  _289
REMARK  119  A    between atoms: _289  and  _290
REMARK  120  A    between atoms: _293  and  _295
REMARK  121  A    between atoms: _295  and  _296
REMARK  122  A    between atoms: _295  and  _298
REMARK  123  A    between atoms: _298  and  _299
REMARK  124  A    between atoms: _305  and  _306
REMARK  125  A    between atoms: _311  and  _313
REMARK  126  A    between atoms: _313  and  _314
REMARK  127  A    between atoms: _316  and  _318
REMARK  128  A    between atoms: _318  and  _319
REMARK  129  A    between atoms: _318  and  _321
REMARK  130  A    between atoms: _321  and  _322
REMARK  131  A    between atoms: _324  and  _326
REMARK  132  A    between atoms: _326  and  _327
REMARK  133  A    between atoms: _326  and  _329
REMARK  134  A    between atoms: _329  and  _330
REMARK  135  A    between atoms: _335  and  _336
REMARK  136  A    between atoms: _338  and  _340
REMARK  137  A    between atoms: _340  and  _341
REMARK  138  A    between atoms: _340  and  _343
REMARK  139  A    between atoms: _343  and  _344
REMARK  140  A    between atoms: _349  and  _350
REMARK  141  A    between atoms: _352  and  _354
REMARK  142  A    between atoms: _354  and  _355
REMARK  143  A    between atoms: _354  and  _357
REMARK  144  A    between atoms: _357  and  _358
REMARK  145  A    between atoms: _361  and  _363
REMARK  146  A    between atoms: _363  and  _364
REMARK                            x       y       z     vdW  Elec       q    Type
REMARK                         _______ _______ _______ _____ _____    ______ ____
ROOT
ATOM      1  CA  TYR A   2      -2.436   0.533   0.266  0.00  0.00    +0.153 C 
ENDROOT
BRANCH   1   3
ATOM      2  C   TYR A   1      -2.555  -0.771  -1.775  0.00  0.00    +0.239 C 
ATOM      3  N   TYR A   2      -2.431  -0.731  -0.454  0.00  0.00    -0.297 N 
ATOM      4  H   TYR A   2      -2.328  -1.620   0.076  0.00  0.00    +0.150 HD
ATOM      5  O   TYR A   1      -2.913   0.195  -2.446  0.00  0.00    -0.274 OA
BRANCH   2   6
ATOM      6  CA  TYR A   1      -2.223  -2.099  -2.433  0.00  0.00    +0.149 C 
BRANCH   6   7
ATOM      7  N   TYR A   1      -3.345  -2.627  -3.205  0.00  0.00    -0.238 NA
ATOM      8  H   TYR A   1      -3.237  -2.759  -4.231  0.00  0.00    +0.142 HD
ENDBRANCH   6   7
BRANCH   6   9
ATOM      9  CB  TYR A   1      -0.990  -1.922  -3.322  0.00  0.00    +0.053 C 
BRANCH   9  10
ATOM     10  CG  TYR A   1       0.068  -0.973  -2.773  0.00  0.00    -0.020 A 
ATOM     11  CD2 TYR A   1       0.652  -1.182  -1.522  0.00  0.00    -0.001 A 
ATOM     12  CE2 TYR A   1       1.627  -0.311  -1.027  0.00  0.00    +0.036 A 
ATOM     13  CZ  TYR A   1       2.023   0.773  -1.793  0.00  0.00    +0.134 A 
ATOM     14  CE1 TYR A   1       1.460   0.993  -3.036  0.00  0.00    +0.036 A 
ATOM     15  CD1 TYR A   1       0.488   0.127  -3.514  0.00  0.00    -0.001 A 
BRANCH  13  16
ATOM     16  OH  TYR A   1       2.981   1.645  -1.333  0.00  0.00    -0.506 OA
ATOM     17  HH  TYR A   1       2.672   2.057  -0.488  0.00  0.00    +0.292 HD
ENDBRANCH  13  16
ENDBRANCH   9  10
ENDBRANCH   6   9
ENDBRANCH   2   6
ENDBRANCH   1   3
BRANCH   1  18
ATOM     18  C   TYR A   2      -1.279   0.489   1.249  0.00  0.00    +0.241 C 
ATOM     19  O   TYR A   2      -0.907  -0.583   1.739  0.00  0.00    -0.273 OA
ATOM     20  N   ASP A   3      -0.700   1.647   1.534  0.00  0.00    -0.297 N 
ATOM     21  H   ASP A   3      -1.142   2.537   1.228  0.00  0.00    +0.150 HD
BRANCH  20  22
ATOM     22  CA  ASP A   3       0.554   1.676   2.275  0.00  0.00    +0.160 C 
BRANCH  22  23
ATOM     23  C   ASP A   3       0.360   1.940   3.768  0.00  0.00    +0.241 C 
ATOM     24  N   ALA A   4       0.473   0.879   4.558  0.00  0.00    -0.298 N 
ATOM     25  H   ALA A   4       0.761  -0.031   4.145  0.00  0.00    +0.150 HD
ATOM     26  O   ASP A   3       0.121   3.072   4.193  0.00  0.00    -0.273 OA
BRANCH  24  27
ATOM     27  CA  ALA A   4       0.205   0.956   5.986  0.00  0.00    +0.137 C 
ATOM     28  CB  ALA A   4      -1.265   1.312   6.227  0.00  0.00    +0.030 C 
BRANCH  27  29
ATOM     29  C   ALA A   4       0.527  -0.375   6.649  0.00  0.00    +0.227 C 
ATOM     30  O   ALA A   4       0.765  -1.377   5.967  0.00  0.00    -0.286 OA
ENDBRANCH  27  29
ENDBRANCH  24  27
ENDBRANCH  22  23
BRANCH  22  31
ATOM     31  CB  ASP A   3       1.509   2.695   1.657  0.00  0.00    +0.143 C 
BRANCH  31  32
ATOM     32  CG  ASP A   3       2.946   2.439   2.038  0.00  0.00    +0.367 C 
ATOM     33  OD2 ASP A   3       3.261   2.482   3.249  0.00  0.00    -0.246 OA
ATOM     34  OD1 ASP A   3       3.751   2.182   1.123  0.00  0.00    -0.246 OA
ENDBRANCH  31  32
ENDBRANCH  22  31
ENDBRANCH  20  22
ENDBRANCH   1  18
BRANCH   1  35
ATOM     35  CB  TYR A   2      -3.773   0.776   0.976  0.00  0.00    +0.055 C 
BRANCH  35  36
ATOM     36  CG  TYR A   2      -4.139  -0.271   1.996  0.00  0.00    -0.020 A 
ATOM     37  CD2 TYR A   2      -3.912  -0.061   3.348  0.00  0.00    -0.001 A 
ATOM     38  CE2 TYR A   2      -4.247  -1.022   4.286  0.00  0.00    +0.036 A 
ATOM     39  CZ  TYR A   2      -4.818  -2.208   3.872  0.00  0.00    +0.134 A 
ATOM     40  CE1 TYR A   2      -5.054  -2.440   2.535  0.00  0.00    +0.036 A 
ATOM     41  CD1 TYR A   2      -4.715  -1.475   1.606  0.00  0.00    -0.001 A 
BRANCH  39  42
ATOM     42  OH  TYR A   2      -5.156  -3.169   4.798  0.00  0.00    -0.506 OA
ATOM     43  HH  TYR A   2      -4.345  -3.452   5.289  0.00  0.00    +0.292 HD
ENDBRANCH  39  42
ENDBRANCH  35  36
ENDBRANCH   1  35
TORSDOF 16
REMARK  Name = ../refined-set-2016/3hzk/3hzk_pocket.pdb
REMARK  146 active torsions:
REMARK  status: ('A' for Active; 'I' for Inactive)
REMARK    1  A    between atoms: _1  and  _3
REMARK    2  A    between atoms: _3  and  _4
REMARK    3  A    between atoms: _3  and  _6
REMARK    4  A    between atoms: _6  and  _7
REMARK    5  A    between atoms: _10  and  _12
REMARK    6  A    between atoms: _12  and  _13
REMARK    7  A    between atoms: _12  and  _15
REMARK    8  A    between atoms: _15  and  _16
REMARK    9  A    between atoms: _19  and  _21
REMARK   10  A    between atoms: _21  and  _22
REMARK   11  A    between atoms: _21  and  _24
REMARK   12  A    between atoms: _24  and  _25
REMARK   13  A    between atoms: _30  and  _32
REMARK   14  A    between atoms: _32  and  _33
REMARK   15  A    between atoms: _32  and  _35
REMARK   16  A    between atoms: _35  and  _36
REMARK   17  A    between atoms: _36  and  _37
REMARK   18  A    between atoms: _37  and  _38
REMARK   19  A    between atoms: _47  and  _49
REMARK   20  A    between atoms: _49  and  _50
REMARK   21  A    between atoms: _49  and  _52
REMARK   22  A    between atoms: _52  and  _53
REMARK   23  A    between atoms: _56  and  _58
REMARK   24  A    between atoms: _58  and  _59
REMARK   25  A    between atoms: _58  and  _61
REMARK   26  A    between atoms: _61  and  _62
REMARK   27  A    between atoms: _62  and  _63
REMARK   28  A    between atoms: _63  and  _64
REMARK   29  A    between atoms: _64  and  _65
REMARK   30  A    between atoms: _69  and  _71
REMARK   31  A    between atoms: _71  and  _72
REMARK   32  A    between atoms: _71  and  _74
REMARK   33  A    between atoms: _74  and  _75
REMARK   34  A    between atoms: _80  and  _81
REMARK   35  A    between atoms: _83  and  _85
REMARK   36  A    between atoms: _85  and  _86
REMARK   37  A    between atoms: _85  and  _88
REMARK   38  A    between atoms: _88  and  _89
REMARK   39  A    between atoms: _99  and  _101
REMARK   40  A    between atoms: _101  and  _102
REMARK   41  A    between atoms: _101  and  _104
REMARK   42  A    between atoms: _104  and  _105
REMARK   43  A    between atoms: _105  and  _106
REMARK   44  A    between atoms: _106  and  _107
REMARK   45  A    between atoms: _107  and  _108
REMARK   46  A    between atoms: _112  and  _114
REMARK   47  A    between atoms: _114  and  _115
REMARK   48  A    between atoms: _114  and  _117
REMARK   49  A    between atoms: _117  and  _118
REMARK   50  A    between atoms: _118  and  _119
REMARK   51  A    between atoms: _124  and  _126
REMARK   52  A    between atoms: _126  and  _127
REMARK   53  A    between atoms: _126  and  _129
REMARK   54  A    between atoms: _129  and  _130
REMARK   55  A    between atoms: _132  and  _134
REMARK   56  A    between atoms: _134  and  _135
REMARK   57  A    between atoms: _134  and  _137
REMARK   58  A    between atoms: _137  and  _138
REMARK   59  A    between atoms: _143  and  _144
REMARK   60  A    between atoms: _146  and  _148
REMARK   61  A    between atoms: _148  and  _149
REMARK   62  A    between atoms: _148  and  _151
REMARK   63  A    between atoms: _151  and  _152
REMARK   64  A    between atoms: _157  and  _159
REMARK   65  A    between atoms: _159  and  _160
REMARK   66  A    between atoms: _159  and  _162
REMARK   67  A    between atoms: _162  and  _163
REMARK   68  A    between atoms: _166  and  _168
REMARK   69  A    between atoms: _168  and  _169
REMARK   70  A    between atoms: _168  and  _171
REMARK   71  A    between atoms: _171  and  _172
REMARK   72  A    between atoms: _172  and  _173
REMARK   73  A    between atoms: _173  and  _174
REMARK   74  A    between atoms: _183  and  _185
REMARK   75  A    between atoms: _185  and  _186
REMARK   76  A    between atoms: _185  and  _188
REMARK   77  A    between atoms: _188  and  _189
REMARK   78  A    between atoms: _194  and  _195
REMARK   79  A    between atoms: _197  and  _199
REMARK   80  A    between atoms: _199  and  _200
REMARK   81  A    between atoms: _199  and  _202
REMARK   82  A    between atoms: _202  and  _203
REMARK   83  A    between atoms: _209  and  _211
REMARK   84  A    between atoms: _211  and  _212
REMARK   85  A    between atoms: _211  and  _214
REMARK   86  A    between atoms: _214  and  _215
REMARK   87  A    between atoms: _215  and  _216
REMARK   88  A    between atoms: _216  and  _217
REMARK   89  A    between atoms: _226  and  _228
REMARK   90  A    between atoms: _228  and  _229
REMARK   91  A    between atoms: _228  and  _231
REMARK   92  A    between atoms: _231  and  _232
REMARK   93  A    between atoms: _237  and  _239
REMARK   94  A    between atoms: _239  and  _240
REMARK   95  A    between atoms: _243  and  _245
REMARK   96  A    between atoms: _245  and  _246
REMARK   97  A    between atoms: _245  and  _248
REMARK   98  A    between atoms: _248  and  _249
REMARK   99  A    between atoms: _249  and  _250
REMARK  100  A    between atoms: _250  and  _251
REMARK  101  A    between atoms: _251  and  _252
REMARK  102  A    between atoms: _256  and  _258
REMARK  103  A    between atoms: _258  and  _259
REMARK  104  A    between atoms: _258  and  _261
REMARK  105  A    between atoms: _261  and  _262
REMARK  106  A    between atoms: _265  and  _267
REMARK  107  A    between atoms: _267  and  _268
REMARK  108  A    between atoms: _267  and  _270
REMARK  109  A    between atoms: _270  and  _271
REMARK  110  A    between atoms: _271  and  _272
REMARK  111  A    between atoms: _272  and  _274
REMARK  112  A    between atoms: _275  and  _277
REMARK  113  A    between atoms: _277  and  _278
REMARK  114  A    between atoms: _277  and  _280
REMARK  115  A    between atoms: _280  and  _281
REMARK  116  A    between atoms: _284  and  _286
REMARK  117  A    between atoms: _286  and  _287
REMARK  118  A    between atoms: _286  and  _289
REMARK  119  A    between atoms: _289  and  _290
REMARK  120  A    between atoms: _293  and  _295
REMARK  121  A    between atoms: _295  and  _296
REMARK  122  A    between atoms: _295  and  _298
REMARK  123  A    between atoms: _298  and  _299
REMARK  124  A    between atoms: _305  and  _306
REMARK  125  A    between atoms: _311  and  _313
REMARK  126  A    between atoms: _313  and  _314
REMARK  127  A    between atoms: _316  and  _318
REMARK  128  A    between atoms: _318  and  _319
REMARK  129  A    between atoms: _318  and  _321
REMARK  130  A    between atoms: _321  and  _322
REMARK  131  A    between atoms: _324  and  _326
REMARK  132  A    between atoms: _326  and  _327
REMARK  133  A    between atoms: _326  and  _329
REMARK  134  A    between atoms: _329  and  _330
REMARK  135  A    between atoms: _335  and  _336
REMARK  136  A    between atoms: _338  and  _340
REMARK  137  A    between atoms: _340  and  _341
REMARK  138  A    between atoms: _340  and  _343
REMARK  139  A    between atoms: _343  and  _344
REMARK  140  A    between atoms: _349  and  _350
REMARK  141  A    between atoms: _352  and  _354
REMARK  142  A    between atoms: _354  and  _355
REMARK  143  A    between atoms: _354  and  _357
REMARK  144  A    between atoms: _357  and  _358
REMARK  145  A    between atoms: _361  and  _363
REMARK  146  A    between atoms: _363  and  _364
REMARK                            x       y       z     vdW  Elec       q    Type
REMARK                         _______ _______ _______ _____ _____    ______ ____
ROOT
ATOM      1  O   HOH     1       2.087   5.964   6.115  0.00  0.00    +0.000 OA
ENDROOT
TORSDOF 0
REMARK  Name = ../refined-set-2016/3hzk/3hzk_pocket.pdb
REMARK  146 active torsions:
REMARK  status: ('A' for Active; 'I' for Inactive)
REMARK    1  A    between atoms: _1  and  _3
REMARK    2  A    between atoms: _3  and  _4
REMARK    3  A    between atoms: _3  and  _6
REMARK    4  A    between atoms: _6  and  _7
REMARK    5  A    between atoms: _10  and  _12
REMARK    6  A    between atoms: _12  and  _13
REMARK    7  A    between atoms: _12  and  _15
REMARK    8  A    between atoms: _15  and  _16
REMARK    9  A    between atoms: _19  and  _21
REMARK   10  A    between atoms: _21  and  _22
REMARK   11  A    between atoms: _21  and  _24
REMARK   12  A    between atoms: _24  and  _25
REMARK   13  A    between atoms: _30  and  _32
REMARK   14  A    between atoms: _32  and  _33
REMARK   15  A    between atoms: _32  and  _35
REMARK   16  A    between atoms: _35  and  _36
REMARK   17  A    between atoms: _36  and  _37
REMARK   18  A    between atoms: _37  and  _38
REMARK   19  A    between atoms: _47  and  _49
REMARK   20  A    between atoms: _49  and  _50
REMARK   21  A    between atoms: _49  and  _52
REMARK   22  A    between atoms: _52  and  _53
REMARK   23  A    between atoms: _56  and  _58
REMARK   24  A    between atoms: _58  and  _59
REMARK   25  A    between atoms: _58  and  _61
REMARK   26  A    between atoms: _61  and  _62
REMARK   27  A    between atoms: _62  and  _63
REMARK   28  A    between atoms: _63  and  _64
REMARK   29  A    between atoms: _64  and  _65
REMARK   30  A    between atoms: _69  and  _71
REMARK   31  A    between atoms: _71  and  _72
REMARK   32  A    between atoms: _71  and  _74
REMARK   33  A    between atoms: _74  and  _75
REMARK   34  A    between atoms: _80  and  _81
REMARK   35  A    between atoms: _83  and  _85
REMARK   36  A    between atoms: _85  and  _86
REMARK   37  A    between atoms: _85  and  _88
REMARK   38  A    between atoms: _88  and  _89
REMARK   39  A    between atoms: _99  and  _101
REMARK   40  A    between atoms: _101  and  _102
REMARK   41  A    between atoms: _101  and  _104
REMARK   42  A    between atoms: _104  and  _105
REMARK   43  A    between atoms: _105  and  _106
REMARK   44  A    between atoms: _106  and  _107
REMARK   45  A    between atoms: _107  and  _108
REMARK   46  A    between atoms: _112  and  _114
REMARK   47  A    between atoms: _114  and  _115
REMARK   48  A    between atoms: _114  and  _117
REMARK   49  A    between atoms: _117  and  _118
REMARK   50  A    between atoms: _118  and  _119
REMARK   51  A    between atoms: _124  and  _126
REMARK   52  A    between atoms: _126  and  _127
REMARK   53  A    between atoms: _126  and  _129
REMARK   54  A    between atoms: _129  and  _130
REMARK   55  A    between atoms: _132  and  _134
REMARK   56  A    between atoms: _134  and  _135
REMARK   57  A    between atoms: _134  and  _137
REMARK   58  A    between atoms: _137  and  _138
REMARK   59  A    between atoms: _143  and  _144
REMARK   60  A    between atoms: _146  and  _148
REMARK   61  A    between atoms: _148  and  _149
REMARK   62  A    between atoms: _148  and  _151
REMARK   63  A    between atoms: _151  and  _152
REMARK   64  A    between atoms: _157  and  _159
REMARK   65  A    between atoms: _159  and  _160
REMARK   66  A    between atoms: _159  and  _162
REMARK   67  A    between atoms: _162  and  _163
REMARK   68  A    between atoms: _166  and  _168
REMARK   69  A    between atoms: _168  and  _169
REMARK   70  A    between atoms: _168  and  _171
REMARK   71  A    between atoms: _171  and  _172
REMARK   72  A    between atoms: _172  and  _173
REMARK   73  A    between atoms: _173  and  _174
REMARK   74  A    between atoms: _183  and  _185
REMARK   75  A    between atoms: _185  and  _186
REMARK   76  A    between atoms: _185  and  _188
REMARK   77  A    between atoms: _188  and  _189
REMARK   78  A    between atoms: _194  and  _195
REMARK   79  A    between atoms: _197  and  _199
REMARK   80  A    between atoms: _199  and  _200
REMARK   81  A    between atoms: _199  and  _202
REMARK   82  A    between atoms: _202  and  _203
REMARK   83  A    between atoms: _209  and  _211
REMARK   84  A    between atoms: _211  and  _212
REMARK   85  A    between atoms: _211  and  _214
REMARK   86  A    between atoms: _214  and  _215
REMARK   87  A    between atoms: _215  and  _216
REMARK   88  A    between atoms: _216  and  _217
REMARK   89  A    between atoms: _226  and  _228
REMARK   90  A    between atoms: _228  and  _229
REMARK   91  A    between atoms: _228  and  _231
REMARK   92  A    between atoms: _231  and  _232
REMARK   93  A    between atoms: _237  and  _239
REMARK   94  A    between atoms: _239  and  _240
REMARK   95  A    between atoms: _243  and  _245
REMARK   96  A    between atoms: _245  and  _246
REMARK   97  A    between atoms: _245  and  _248
REMARK   98  A    between atoms: _248  and  _249
REMARK   99  A    between atoms: _249  and  _250
REMARK  100  A    between atoms: _250  and  _251
REMARK  101  A    between atoms: _251  and  _252
REMARK  102  A    between atoms: _256  and  _258
REMARK  103  A    between atoms: _258  and  _259
REMARK  104  A    between atoms: _258  and  _261
REMARK  105  A    between atoms: _261  and  _262
REMARK  106  A    between atoms: _265  and  _267
REMARK  107  A    between atoms: _267  and  _268
REMARK  108  A    between atoms: _267  and  _270
REMARK  109  A    between atoms: _270  and  _271
REMARK  110  A    between atoms: _271  and  _272
REMARK  111  A    between atoms: _272  and  _274
REMARK  112  A    between atoms: _275  and  _277
REMARK  113  A    between atoms: _277  and  _278
REMARK  114  A    between atoms: _277  and  _280
REMARK  115  A    between atoms: _280  and  _281
REMARK  116  A    between atoms: _284  and  _286
REMARK  117  A    between atoms: _286  and  _287
REMARK  118  A    between atoms: _286  and  _289
REMARK  119  A    between atoms: _289  and  _290
REMARK  120  A    between atoms: _293  and  _295
REMARK  121  A    between atoms: _295  and  _296
REMARK  122  A    between atoms: _295  and  _298
REMARK  123  A    between atoms: _298  and  _299
REMARK  124  A    between atoms: _305  and  _306
REMARK  125  A    between atoms: _311  and  _313
REMARK  126  A    between atoms: _313  and  _314
REMARK  127  A    between atoms: _316  and  _318
REMARK  128  A    between atoms: _318  and  _319
REMARK  129  A    between atoms: _318  and  _321
REMARK  130  A    between atoms: _321  and  _322
REMARK  131  A    between atoms: _324  and  _326
REMARK  132  A    between atoms: _326  and  _327
REMARK  133  A    between atoms: _326  and  _329
REMARK  134  A    between atoms: _329  and  _330
REMARK  135  A    between atoms: _335  and  _336
REMARK  136  A    between atoms: _338  and  _340
REMARK  137  A    between atoms: _340  and  _341
REMARK  138  A    between atoms: _340  and  _343
REMARK  139  A    between atoms: _343  and  _344
REMARK  140  A    between atoms: _349  and  _350
REMARK  141  A    between atoms: _352  and  _354
REMARK  142  A    between atoms: _354  and  _355
REMARK  143  A    between atoms: _354  and  _357
REMARK  144  A    between atoms: _357  and  _358
REMARK  145  A    between atoms: _361  and  _363
REMARK  146  A    between atoms: _363  and  _364
REMARK                            x       y       z     vdW  Elec       q    Type
REMARK                         _______ _______ _______ _____ _____    ______ ____
ROOT
ATOM      1  O   HOH     1       4.834   2.737  -3.039  0.00  0.00    +0.000 OA
ENDROOT
TORSDOF 0
REMARK  Name = ../refined-set-2016/3hzk/3hzk_pocket.pdb
REMARK  146 active torsions:
REMARK  status: ('A' for Active; 'I' for Inactive)
REMARK    1  A    between atoms: _1  and  _3
REMARK    2  A    between atoms: _3  and  _4
REMARK    3  A    between atoms: _3  and  _6
REMARK    4  A    between atoms: _6  and  _7
REMARK    5  A    between atoms: _10  and  _12
REMARK    6  A    between atoms: _12  and  _13
REMARK    7  A    between atoms: _12  and  _15
REMARK    8  A    between atoms: _15  and  _16
REMARK    9  A    between atoms: _19  and  _21
REMARK   10  A    between atoms: _21  and  _22
REMARK   11  A    between atoms: _21  and  _24
REMARK   12  A    between atoms: _24  and  _25
REMARK   13  A    between atoms: _30  and  _32
REMARK   14  A    between atoms: _32  and  _33
REMARK   15  A    between atoms: _32  and  _35
REMARK   16  A    between atoms: _35  and  _36
REMARK   17  A    between atoms: _36  and  _37
REMARK   18  A    between atoms: _37  and  _38
REMARK   19  A    between atoms: _47  and  _49
REMARK   20  A    between atoms: _49  and  _50
REMARK   21  A    between atoms: _49  and  _52
REMARK   22  A    between atoms: _52  and  _53
REMARK   23  A    between atoms: _56  and  _58
REMARK   24  A    between atoms: _58  and  _59
REMARK   25  A    between atoms: _58  and  _61
REMARK   26  A    between atoms: _61  and  _62
REMARK   27  A    between atoms: _62  and  _63
REMARK   28  A    between atoms: _63  and  _64
REMARK   29  A    between atoms: _64  and  _65
REMARK   30  A    between atoms: _69  and  _71
REMARK   31  A    between atoms: _71  and  _72
REMARK   32  A    between atoms: _71  and  _74
REMARK   33  A    between atoms: _74  and  _75
REMARK   34  A    between atoms: _80  and  _81
REMARK   35  A    between atoms: _83  and  _85
REMARK   36  A    between atoms: _85  and  _86
REMARK   37  A    between atoms: _85  and  _88
REMARK   38  A    between atoms: _88  and  _89
REMARK   39  A    between atoms: _99  and  _101
REMARK   40  A    between atoms: _101  and  _102
REMARK   41  A    between atoms: _101  and  _104
REMARK   42  A    between atoms: _104  and  _105
REMARK   43  A    between atoms: _105  and  _106
REMARK   44  A    between atoms: _106  and  _107
REMARK   45  A    between atoms: _107  and  _108
REMARK   46  A    between atoms: _112  and  _114
REMARK   47  A    between atoms: _114  and  _115
REMARK   48  A    between atoms: _114  and  _117
REMARK   49  A    between atoms: _117  and  _118
REMARK   50  A    between atoms: _118  and  _119
REMARK   51  A    between atoms: _124  and  _126
REMARK   52  A    between atoms: _126  and  _127
REMARK   53  A    between atoms: _126  and  _129
REMARK   54  A    between atoms: _129  and  _130
REMARK   55  A    between atoms: _132  and  _134
REMARK   56  A    between atoms: _134  and  _135
REMARK   57  A    between atoms: _134  and  _137
REMARK   58  A    between atoms: _137  and  _138
REMARK   59  A    between atoms: _143  and  _144
REMARK   60  A    between atoms: _146  and  _148
REMARK   61  A    between atoms: _148  and  _149
REMARK   62  A    between atoms: _148  and  _151
REMARK   63  A    between atoms: _151  and  _152
REMARK   64  A    between atoms: _157  and  _159
REMARK   65  A    between atoms: _159  and  _160
REMARK   66  A    between atoms: _159  and  _162
REMARK   67  A    between atoms: _162  and  _163
REMARK   68  A    between atoms: _166  and  _168
REMARK   69  A    between atoms: _168  and  _169
REMARK   70  A    between atoms: _168  and  _171
REMARK   71  A    between atoms: _171  and  _172
REMARK   72  A    between atoms: _172  and  _173
REMARK   73  A    between atoms: _173  and  _174
REMARK   74  A    between atoms: _183  and  _185
REMARK   75  A    between atoms: _185  and  _186
REMARK   76  A    between atoms: _185  and  _188
REMARK   77  A    between atoms: _188  and  _189
REMARK   78  A    between atoms: _194  and  _195
REMARK   79  A    between atoms: _197  and  _199
REMARK   80  A    between atoms: _199  and  _200
REMARK   81  A    between atoms: _199  and  _202
REMARK   82  A    between atoms: _202  and  _203
REMARK   83  A    between atoms: _209  and  _211
REMARK   84  A    between atoms: _211  and  _212
REMARK   85  A    between atoms: _211  and  _214
REMARK   86  A    between atoms: _214  and  _215
REMARK   87  A    between atoms: _215  and  _216
REMARK   88  A    between atoms: _216  and  _217
REMARK   89  A    between atoms: _226  and  _228
REMARK   90  A    between atoms: _228  and  _229
REMARK   91  A    between atoms: _228  and  _231
REMARK   92  A    between atoms: _231  and  _232
REMARK   93  A    between atoms: _237  and  _239
REMARK   94  A    between atoms: _239  and  _240
REMARK   95  A    between atoms: _243  and  _245
REMARK   96  A    between atoms: _245  and  _246
REMARK   97  A    between atoms: _245  and  _248
REMARK   98  A    between atoms: _248  and  _249
REMARK   99  A    between atoms: _249  and  _250
REMARK  100  A    between atoms: _250  and  _251
REMARK  101  A    between atoms: _251  and  _252
REMARK  102  A    between atoms: _256  and  _258
REMARK  103  A    between atoms: _258  and  _259
REMARK  104  A    between atoms: _258  and  _261
REMARK  105  A    between atoms: _261  and  _262
REMARK  106  A    between atoms: _265  and  _267
REMARK  107  A    between atoms: _267  and  _268
REMARK  108  A    between atoms: _267  and  _270
REMARK  109  A    between atoms: _270  and  _271
REMARK  110  A    between atoms: _271  and  _272
REMARK  111  A    between atoms: _272  and  _274
REMARK  112  A    between atoms: _275  and  _277
REMARK  113  A    between atoms: _277  and  _278
REMARK  114  A    between atoms: _277  and  _280
REMARK  115  A    between atoms: _280  and  _281
REMARK  116  A    between atoms: _284  and  _286
REMARK  117  A    between atoms: _286  and  _287
REMARK  118  A    between atoms: _286  and  _289
REMARK  119  A    between atoms: _289  and  _290
REMARK  120  A    between atoms: _293  and  _295
REMARK  121  A    between atoms: _295  and  _296
REMARK  122  A    between atoms: _295  and  _298
REMARK  123  A    between atoms: _298  and  _299
REMARK  124  A    between atoms: _305  and  _306
REMARK  125  A    between atoms: _311  and  _313
REMARK  126  A    between atoms: _313  and  _314
REMARK  127  A    between atoms: _316  and  _318
REMARK  128  A    between atoms: _318  and  _319
REMARK  129  A    between atoms: _318  and  _321
REMARK  130  A    between atoms: _321  and  _322
REMARK  131  A    between atoms: _324  and  _326
REMARK  132  A    between atoms: _326  and  _327
REMARK  133  A    between atoms: _326  and  _329
REMARK  134  A    between atoms: _329  and  _330
REMARK  135  A    between atoms: _335  and  _336
REMARK  136  A    between atoms: _338  and  _340
REMARK  137  A    between atoms: _340  and  _341
REMARK  138  A    between atoms: _340  and  _343
REMARK  139  A    between atoms: _343  and  _344
REMARK  140  A    between atoms: _349  and  _350
REMARK  141  A    between atoms: _352  and  _354
REMARK  142  A    between atoms: _354  and  _355
REMARK  143  A    between atoms: _354  and  _357
REMARK  144  A    between atoms: _357  and  _358
REMARK  145  A    between atoms: _361  and  _363
REMARK  146  A    between atoms: _363  and  _364
REMARK                            x       y       z     vdW  Elec       q    Type
REMARK                         _______ _______ _______ _____ _____    ______ ____
ROOT
ATOM      1  O   HOH     1       6.451  -6.072  -7.197  0.00  0.00    +0.000 OA
ENDROOT
TORSDOF 0
REMARK  Name = ../refined-set-2016/3hzk/3hzk_pocket.pdb
REMARK  146 active torsions:
REMARK  status: ('A' for Active; 'I' for Inactive)
REMARK    1  A    between atoms: _1  and  _3
REMARK    2  A    between atoms: _3  and  _4
REMARK    3  A    between atoms: _3  and  _6
REMARK    4  A    between atoms: _6  and  _7
REMARK    5  A    between atoms: _10  and  _12
REMARK    6  A    between atoms: _12  and  _13
REMARK    7  A    between atoms: _12  and  _15
REMARK    8  A    between atoms: _15  and  _16
REMARK    9  A    between atoms: _19  and  _21
REMARK   10  A    between atoms: _21  and  _22
REMARK   11  A    between atoms: _21  and  _24
REMARK   12  A    between atoms: _24  and  _25
REMARK   13  A    between atoms: _30  and  _32
REMARK   14  A    between atoms: _32  and  _33
REMARK   15  A    between atoms: _32  and  _35
REMARK   16  A    between atoms: _35  and  _36
REMARK   17  A    between atoms: _36  and  _37
REMARK   18  A    between atoms: _37  and  _38
REMARK   19  A    between atoms: _47  and  _49
REMARK   20  A    between atoms: _49  and  _50
REMARK   21  A    between atoms: _49  and  _52
REMARK   22  A    between atoms: _52  and  _53
REMARK   23  A    between atoms: _56  and  _58
REMARK   24  A    between atoms: _58  and  _59
REMARK   25  A    between atoms: _58  and  _61
REMARK   26  A    between atoms: _61  and  _62
REMARK   27  A    between atoms: _62  and  _63
REMARK   28  A    between atoms: _63  and  _64
REMARK   29  A    between atoms: _64  and  _65
REMARK   30  A    between atoms: _69  and  _71
REMARK   31  A    between atoms: _71  and  _72
REMARK   32  A    between atoms: _71  and  _74
REMARK   33  A    between atoms: _74  and  _75
REMARK   34  A    between atoms: _80  and  _81
REMARK   35  A    between atoms: _83  and  _85
REMARK   36  A    between atoms: _85  and  _86
REMARK   37  A    between atoms: _85  and  _88
REMARK   38  A    between atoms: _88  and  _89
REMARK   39  A    between atoms: _99  and  _101
REMARK   40  A    between atoms: _101  and  _102
REMARK   41  A    between atoms: _101  and  _104
REMARK   42  A    between atoms: _104  and  _105
REMARK   43  A    between atoms: _105  and  _106
REMARK   44  A    between atoms: _106  and  _107
REMARK   45  A    between atoms: _107  and  _108
REMARK   46  A    between atoms: _112  and  _114
REMARK   47  A    between atoms: _114  and  _115
REMARK   48  A    between atoms: _114  and  _117
REMARK   49  A    between atoms: _117  and  _118
REMARK   50  A    between atoms: _118  and  _119
REMARK   51  A    between atoms: _124  and  _126
REMARK   52  A    between atoms: _126  and  _127
REMARK   53  A    between atoms: _126  and  _129
REMARK   54  A    between atoms: _129  and  _130
REMARK   55  A    between atoms: _132  and  _134
REMARK   56  A    between atoms: _134  and  _135
REMARK   57  A    between atoms: _134  and  _137
REMARK   58  A    between atoms: _137  and  _138
REMARK   59  A    between atoms: _143  and  _144
REMARK   60  A    between atoms: _146  and  _148
REMARK   61  A    between atoms: _148  and  _149
REMARK   62  A    between atoms: _148  and  _151
REMARK   63  A    between atoms: _151  and  _152
REMARK   64  A    between atoms: _157  and  _159
REMARK   65  A    between atoms: _159  and  _160
REMARK   66  A    between atoms: _159  and  _162
REMARK   67  A    between atoms: _162  and  _163
REMARK   68  A    between atoms: _166  and  _168
REMARK   69  A    between atoms: _168  and  _169
REMARK   70  A    between atoms: _168  and  _171
REMARK   71  A    between atoms: _171  and  _172
REMARK   72  A    between atoms: _172  and  _173
REMARK   73  A    between atoms: _173  and  _174
REMARK   74  A    between atoms: _183  and  _185
REMARK   75  A    between atoms: _185  and  _186
REMARK   76  A    between atoms: _185  and  _188
REMARK   77  A    between atoms: _188  and  _189
REMARK   78  A    between atoms: _194  and  _195
REMARK   79  A    between atoms: _197  and  _199
REMARK   80  A    between atoms: _199  and  _200
REMARK   81  A    between atoms: _199  and  _202
REMARK   82  A    between atoms: _202  and  _203
REMARK   83  A    between atoms: _209  and  _211
REMARK   84  A    between atoms: _211  and  _212
REMARK   85  A    between atoms: _211  and  _214
REMARK   86  A    between atoms: _214  and  _215
REMARK   87  A    between atoms: _215  and  _216
REMARK   88  A    between atoms: _216  and  _217
REMARK   89  A    between atoms: _226  and  _228
REMARK   90  A    between atoms: _228  and  _229
REMARK   91  A    between atoms: _228  and  _231
REMARK   92  A    between atoms: _231  and  _232
REMARK   93  A    between atoms: _237  and  _239
REMARK   94  A    between atoms: _239  and  _240
REMARK   95  A    between atoms: _243  and  _245
REMARK   96  A    between atoms: _245  and  _246
REMARK   97  A    between atoms: _245  and  _248
REMARK   98  A    between atoms: _248  and  _249
REMARK   99  A    between atoms: _249  and  _250
REMARK  100  A    between atoms: _250  and  _251
REMARK  101  A    between atoms: _251  and  _252
REMARK  102  A    between atoms: _256  and  _258
REMARK  103  A    between atoms: _258  and  _259
REMARK  104  A    between atoms: _258  and  _261
REMARK  105  A    between atoms: _261  and  _262
REMARK  106  A    between atoms: _265  and  _267
REMARK  107  A    between atoms: _267  and  _268
REMARK  108  A    between atoms: _267  and  _270
REMARK  109  A    between atoms: _270  and  _271
REMARK  110  A    between atoms: _271  and  _272
REMARK  111  A    between atoms: _272  and  _274
REMARK  112  A    between atoms: _275  and  _277
REMARK  113  A    between atoms: _277  and  _278
REMARK  114  A    between atoms: _277  and  _280
REMARK  115  A    between atoms: _280  and  _281
REMARK  116  A    between atoms: _284  and  _286
REMARK  117  A    between atoms: _286  and  _287
REMARK  118  A    between atoms: _286  and  _289
REMARK  119  A    between atoms: _289  and  _290
REMARK  120  A    between atoms: _293  and  _295
REMARK  121  A    between atoms: _295  and  _296
REMARK  122  A    between atoms: _295  and  _298
REMARK  123  A    between atoms: _298  and  _299
REMARK  124  A    between atoms: _305  and  _306
REMARK  125  A    between atoms: _311  and  _313
REMARK  126  A    between atoms: _313  and  _314
REMARK  127  A    between atoms: _316  and  _318
REMARK  128  A    between atoms: _318  and  _319
REMARK  129  A    between atoms: _318  and  _321
REMARK  130  A    between atoms: _321  and  _322
REMARK  131  A    between atoms: _324  and  _326
REMARK  132  A    between atoms: _326  and  _327
REMARK  133  A    between atoms: _326  and  _329
REMARK  134  A    between atoms: _329  and  _330
REMARK  135  A    between atoms: _335  and  _336
REMARK  136  A    between atoms: _338  and  _340
REMARK  137  A    between atoms: _340  and  _341
REMARK  138  A    between atoms: _340  and  _343
REMARK  139  A    between atoms: _343  and  _344
REMARK  140  A    between atoms: _349  and  _350
REMARK  141  A    between atoms: _352  and  _354
REMARK  142  A    between atoms: _354  and  _355
REMARK  143  A    between atoms: _354  and  _357
REMARK  144  A    between atoms: _357  and  _358
REMARK  145  A    between atoms: _361  and  _363
REMARK  146  A    between atoms: _363  and  _364
REMARK                            x       y       z     vdW  Elec       q    Type
REMARK                         _______ _______ _______ _____ _____    ______ ____
ROOT
ATOM      1  O   HOH     1       3.432   0.898   5.655  0.00  0.00    +0.000 OA
ENDROOT
TORSDOF 0
REMARK  Name = ../refined-set-2016/3hzk/3hzk_pocket.pdb
REMARK  146 active torsions:
REMARK  status: ('A' for Active; 'I' for Inactive)
REMARK    1  A    between atoms: _1  and  _3
REMARK    2  A    between atoms: _3  and  _4
REMARK    3  A    between atoms: _3  and  _6
REMARK    4  A    between atoms: _6  and  _7
REMARK    5  A    between atoms: _10  and  _12
REMARK    6  A    between atoms: _12  and  _13
REMARK    7  A    between atoms: _12  and  _15
REMARK    8  A    between atoms: _15  and  _16
REMARK    9  A    between atoms: _19  and  _21
REMARK   10  A    between atoms: _21  and  _22
REMARK   11  A    between atoms: _21  and  _24
REMARK   12  A    between atoms: _24  and  _25
REMARK   13  A    between atoms: _30  and  _32
REMARK   14  A    between atoms: _32  and  _33
REMARK   15  A    between atoms: _32  and  _35
REMARK   16  A    between atoms: _35  and  _36
REMARK   17  A    between atoms: _36  and  _37
REMARK   18  A    between atoms: _37  and  _38
REMARK   19  A    between atoms: _47  and  _49
REMARK   20  A    between atoms: _49  and  _50
REMARK   21  A    between atoms: _49  and  _52
REMARK   22  A    between atoms: _52  and  _53
REMARK   23  A    between atoms: _56  and  _58
REMARK   24  A    between atoms: _58  and  _59
REMARK   25  A    between atoms: _58  and  _61
REMARK   26  A    between atoms: _61  and  _62
REMARK   27  A    between atoms: _62  and  _63
REMARK   28  A    between atoms: _63  and  _64
REMARK   29  A    between atoms: _64  and  _65
REMARK   30  A    between atoms: _69  and  _71
REMARK   31  A    between atoms: _71  and  _72
REMARK   32  A    between atoms: _71  and  _74
REMARK   33  A    between atoms: _74  and  _75
REMARK   34  A    between atoms: _80  and  _81
REMARK   35  A    between atoms: _83  and  _85
REMARK   36  A    between atoms: _85  and  _86
REMARK   37  A    between atoms: _85  and  _88
REMARK   38  A    between atoms: _88  and  _89
REMARK   39  A    between atoms: _99  and  _101
REMARK   40  A    between atoms: _101  and  _102
REMARK   41  A    between atoms: _101  and  _104
REMARK   42  A    between atoms: _104  and  _105
REMARK   43  A    between atoms: _105  and  _106
REMARK   44  A    between atoms: _106  and  _107
REMARK   45  A    between atoms: _107  and  _108
REMARK   46  A    between atoms: _112  and  _114
REMARK   47  A    between atoms: _114  and  _115
REMARK   48  A    between atoms: _114  and  _117
REMARK   49  A    between atoms: _117  and  _118
REMARK   50  A    between atoms: _118  and  _119
REMARK   51  A    between atoms: _124  and  _126
REMARK   52  A    between atoms: _126  and  _127
REMARK   53  A    between atoms: _126  and  _129
REMARK   54  A    between atoms: _129  and  _130
REMARK   55  A    between atoms: _132  and  _134
REMARK   56  A    between atoms: _134  and  _135
REMARK   57  A    between atoms: _134  and  _137
REMARK   58  A    between atoms: _137  and  _138
REMARK   59  A    between atoms: _143  and  _144
REMARK   60  A    between atoms: _146  and  _148
REMARK   61  A    between atoms: _148  and  _149
REMARK   62  A    between atoms: _148  and  _151
REMARK   63  A    between atoms: _151  and  _152
REMARK   64  A    between atoms: _157  and  _159
REMARK   65  A    between atoms: _159  and  _160
REMARK   66  A    between atoms: _159  and  _162
REMARK   67  A    between atoms: _162  and  _163
REMARK   68  A    between atoms: _166  and  _168
REMARK   69  A    between atoms: _168  and  _169
REMARK   70  A    between atoms: _168  and  _171
REMARK   71  A    between atoms: _171  and  _172
REMARK   72  A    between atoms: _172  and  _173
REMARK   73  A    between atoms: _173  and  _174
REMARK   74  A    between atoms: _183  and  _185
REMARK   75  A    between atoms: _185  and  _186
REMARK   76  A    between atoms: _185  and  _188
REMARK   77  A    between atoms: _188  and  _189
REMARK   78  A    between atoms: _194  and  _195
REMARK   79  A    between atoms: _197  and  _199
REMARK   80  A    between atoms: _199  and  _200
REMARK   81  A    between atoms: _199  and  _202
REMARK   82  A    between atoms: _202  and  _203
REMARK   83  A    between atoms: _209  and  _211
REMARK   84  A    between atoms: _211  and  _212
REMARK   85  A    between atoms: _211  and  _214
REMARK   86  A    between atoms: _214  and  _215
REMARK   87  A    between atoms: _215  and  _216
REMARK   88  A    between atoms: _216  and  _217
REMARK   89  A    between atoms: _226  and  _228
REMARK   90  A    between atoms: _228  and  _229
REMARK   91  A    between atoms: _228  and  _231
REMARK   92  A    between atoms: _231  and  _232
REMARK   93  A    between atoms: _237  and  _239
REMARK   94  A    between atoms: _239  and  _240
REMARK   95  A    between atoms: _243  and  _245
REMARK   96  A    between atoms: _245  and  _246
REMARK   97  A    between atoms: _245  and  _248
REMARK   98  A    between atoms: _248  and  _249
REMARK   99  A    between atoms: _249  and  _250
REMARK  100  A    between atoms: _250  and  _251
REMARK  101  A    between atoms: _251  and  _252
REMARK  102  A    between atoms: _256  and  _258
REMARK  103  A    between atoms: _258  and  _259
REMARK  104  A    between atoms: _258  and  _261
REMARK  105  A    between atoms: _261  and  _262
REMARK  106  A    between atoms: _265  and  _267
REMARK  107  A    between atoms: _267  and  _268
REMARK  108  A    between atoms: _267  and  _270
REMARK  109  A    between atoms: _270  and  _271
REMARK  110  A    between atoms: _271  and  _272
REMARK  111  A    between atoms: _272  and  _274
REMARK  112  A    between atoms: _275  and  _277
REMARK  113  A    between atoms: _277  and  _278
REMARK  114  A    between atoms: _277  and  _280
REMARK  115  A    between atoms: _280  and  _281
REMARK  116  A    between atoms: _284  and  _286
REMARK  117  A    between atoms: _286  and  _287
REMARK  118  A    between atoms: _286  and  _289
REMARK  119  A    between atoms: _289  and  _290
REMARK  120  A    between atoms: _293  and  _295
REMARK  121  A    between atoms: _295  and  _296
REMARK  122  A    between atoms: _295  and  _298
REMARK  123  A    between atoms: _298  and  _299
REMARK  124  A    between atoms: _305  and  _306
REMARK  125  A    between atoms: _311  and  _313
REMARK  126  A    between atoms: _313  and  _314
REMARK  127  A    between atoms: _316  and  _318
REMARK  128  A    between atoms: _318  and  _319
REMARK  129  A    between atoms: _318  and  _321
REMARK  130  A    between atoms: _321  and  _322
REMARK  131  A    between atoms: _324  and  _326
REMARK  132  A    between atoms: _326  and  _327
REMARK  133  A    between atoms: _326  and  _329
REMARK  134  A    between atoms: _329  and  _330
REMARK  135  A    between atoms: _335  and  _336
REMARK  136  A    between atoms: _338  and  _340
REMARK  137  A    between atoms: _340  and  _341
REMARK  138  A    between atoms: _340  and  _343
REMARK  139  A    between atoms: _343  and  _344
REMARK  140  A    between atoms: _349  and  _350
REMARK  141  A    between atoms: _352  and  _354
REMARK  142  A    between atoms: _354  and  _355
REMARK  143  A    between atoms: _354  and  _357
REMARK  144  A    between atoms: _357  and  _358
REMARK  145  A    between atoms: _361  and  _363
REMARK  146  A    between atoms: _363  and  _364
REMARK                            x       y       z     vdW  Elec       q    Type
REMARK                         _______ _______ _______ _____ _____    ______ ____
ROOT
ATOM      1  O   HOH     1      -0.025   5.763   4.059  0.00  0.00    +0.000 OA
ENDROOT
TORSDOF 0
REMARK  Name = ../refined-set-2016/3hzk/3hzk_pocket.pdb
REMARK  146 active torsions:
REMARK  status: ('A' for Active; 'I' for Inactive)
REMARK    1  A    between atoms: _1  and  _3
REMARK    2  A    between atoms: _3  and  _4
REMARK    3  A    between atoms: _3  and  _6
REMARK    4  A    between atoms: _6  and  _7
REMARK    5  A    between atoms: _10  and  _12
REMARK    6  A    between atoms: _12  and  _13
REMARK    7  A    between atoms: _12  and  _15
REMARK    8  A    between atoms: _15  and  _16
REMARK    9  A    between atoms: _19  and  _21
REMARK   10  A    between atoms: _21  and  _22
REMARK   11  A    between atoms: _21  and  _24
REMARK   12  A    between atoms: _24  and  _25
REMARK   13  A    between atoms: _30  and  _32
REMARK   14  A    between atoms: _32  and  _33
REMARK   15  A    between atoms: _32  and  _35
REMARK   16  A    between atoms: _35  and  _36
REMARK   17  A    between atoms: _36  and  _37
REMARK   18  A    between atoms: _37  and  _38
REMARK   19  A    between atoms: _47  and  _49
REMARK   20  A    between atoms: _49  and  _50
REMARK   21  A    between atoms: _49  and  _52
REMARK   22  A    between atoms: _52  and  _53
REMARK   23  A    between atoms: _56  and  _58
REMARK   24  A    between atoms: _58  and  _59
REMARK   25  A    between atoms: _58  and  _61
REMARK   26  A    between atoms: _61  and  _62
REMARK   27  A    between atoms: _62  and  _63
REMARK   28  A    between atoms: _63  and  _64
REMARK   29  A    between atoms: _64  and  _65
REMARK   30  A    between atoms: _69  and  _71
REMARK   31  A    between atoms: _71  and  _72
REMARK   32  A    between atoms: _71  and  _74
REMARK   33  A    between atoms: _74  and  _75
REMARK   34  A    between atoms: _80  and  _81
REMARK   35  A    between atoms: _83  and  _85
REMARK   36  A    between atoms: _85  and  _86
REMARK   37  A    between atoms: _85  and  _88
REMARK   38  A    between atoms: _88  and  _89
REMARK   39  A    between atoms: _99  and  _101
REMARK   40  A    between atoms: _101  and  _102
REMARK   41  A    between atoms: _101  and  _104
REMARK   42  A    between atoms: _104  and  _105
REMARK   43  A    between atoms: _105  and  _106
REMARK   44  A    between atoms: _106  and  _107
REMARK   45  A    between atoms: _107  and  _108
REMARK   46  A    between atoms: _112  and  _114
REMARK   47  A    between atoms: _114  and  _115
REMARK   48  A    between atoms: _114  and  _117
REMARK   49  A    between atoms: _117  and  _118
REMARK   50  A    between atoms: _118  and  _119
REMARK   51  A    between atoms: _124  and  _126
REMARK   52  A    between atoms: _126  and  _127
REMARK   53  A    between atoms: _126  and  _129
REMARK   54  A    between atoms: _129  and  _130
REMARK   55  A    between atoms: _132  and  _134
REMARK   56  A    between atoms: _134  and  _135
REMARK   57  A    between atoms: _134  and  _137
REMARK   58  A    between atoms: _137  and  _138
REMARK   59  A    between atoms: _143  and  _144
REMARK   60  A    between atoms: _146  and  _148
REMARK   61  A    between atoms: _148  and  _149
REMARK   62  A    between atoms: _148  and  _151
REMARK   63  A    between atoms: _151  and  _152
REMARK   64  A    between atoms: _157  and  _159
REMARK   65  A    between atoms: _159  and  _160
REMARK   66  A    between atoms: _159  and  _162
REMARK   67  A    between atoms: _162  and  _163
REMARK   68  A    between atoms: _166  and  _168
REMARK   69  A    between atoms: _168  and  _169
REMARK   70  A    between atoms: _168  and  _171
REMARK   71  A    between atoms: _171  and  _172
REMARK   72  A    between atoms: _172  and  _173
REMARK   73  A    between atoms: _173  and  _174
REMARK   74  A    between atoms: _183  and  _185
REMARK   75  A    between atoms: _185  and  _186
REMARK   76  A    between atoms: _185  and  _188
REMARK   77  A    between atoms: _188  and  _189
REMARK   78  A    between atoms: _194  and  _195
REMARK   79  A    between atoms: _197  and  _199
REMARK   80  A    between atoms: _199  and  _200
REMARK   81  A    between atoms: _199  and  _202
REMARK   82  A    between atoms: _202  and  _203
REMARK   83  A    between atoms: _209  and  _211
REMARK   84  A    between atoms: _211  and  _212
REMARK   85  A    between atoms: _211  and  _214
REMARK   86  A    between atoms: _214  and  _215
REMARK   87  A    between atoms: _215  and  _216
REMARK   88  A    between atoms: _216  and  _217
REMARK   89  A    between atoms: _226  and  _228
REMARK   90  A    between atoms: _228  and  _229
REMARK   91  A    between atoms: _228  and  _231
REMARK   92  A    between atoms: _231  and  _232
REMARK   93  A    between atoms: _237  and  _239
REMARK   94  A    between atoms: _239  and  _240
REMARK   95  A    between atoms: _243  and  _245
REMARK   96  A    between atoms: _245  and  _246
REMARK   97  A    between atoms: _245  and  _248
REMARK   98  A    between atoms: _248  and  _249
REMARK   99  A    between atoms: _249  and  _250
REMARK  100  A    between atoms: _250  and  _251
REMARK  101  A    between atoms: _251  and  _252
REMARK  102  A    between atoms: _256  and  _258
REMARK  103  A    between atoms: _258  and  _259
REMARK  104  A    between atoms: _258  and  _261
REMARK  105  A    between atoms: _261  and  _262
REMARK  106  A    between atoms: _265  and  _267
REMARK  107  A    between atoms: _267  and  _268
REMARK  108  A    between atoms: _267  and  _270
REMARK  109  A    between atoms: _270  and  _271
REMARK  110  A    between atoms: _271  and  _272
REMARK  111  A    between atoms: _272  and  _274
REMARK  112  A    between atoms: _275  and  _277
REMARK  113  A    between atoms: _277  and  _278
REMARK  114  A    between atoms: _277  and  _280
REMARK  115  A    between atoms: _280  and  _281
REMARK  116  A    between atoms: _284  and  _286
REMARK  117  A    between atoms: _286  and  _287
REMARK  118  A    between atoms: _286  and  _289
REMARK  119  A    between atoms: _289  and  _290
REMARK  120  A    between atoms: _293  and  _295
REMARK  121  A    between atoms: _295  and  _296
REMARK  122  A    between atoms: _295  and  _298
REMARK  123  A    between atoms: _298  and  _299
REMARK  124  A    between atoms: _305  and  _306
REMARK  125  A    between atoms: _311  and  _313
REMARK  126  A    between atoms: _313  and  _314
REMARK  127  A    between atoms: _316  and  _318
REMARK  128  A    between atoms: _318  and  _319
REMARK  129  A    between atoms: _318  and  _321
REMARK  130  A    between atoms: _321  and  _322
REMARK  131  A    between atoms: _324  and  _326
REMARK  132  A    between atoms: _326  and  _327
REMARK  133  A    between atoms: _326  and  _329
REMARK  134  A    between atoms: _329  and  _330
REMARK  135  A    between atoms: _335  and  _336
REMARK  136  A    between atoms: _338  and  _340
REMARK  137  A    between atoms: _340  and  _341
REMARK  138  A    between atoms: _340  and  _343
REMARK  139  A    between atoms: _343  and  _344
REMARK  140  A    between atoms: _349  and  _350
REMARK  141  A    between atoms: _352  and  _354
REMARK  142  A    between atoms: _354  and  _355
REMARK  143  A    between atoms: _354  and  _357
REMARK  144  A    between atoms: _357  and  _358
REMARK  145  A    between atoms: _361  and  _363
REMARK  146  A    between atoms: _363  and  _364
REMARK                            x       y       z     vdW  Elec       q    Type
REMARK                         _______ _______ _______ _____ _____    ______ ____
ROOT
ATOM      1  O   HOH     1      14.420  -5.611  -2.993  0.00  0.00    +0.000 OA
ENDROOT
TORSDOF 0
REMARK  Name = ../refined-set-2016/3hzk/3hzk_pocket.pdb
REMARK  146 active torsions:
REMARK  status: ('A' for Active; 'I' for Inactive)
REMARK    1  A    between atoms: _1  and  _3
REMARK    2  A    between atoms: _3  and  _4
REMARK    3  A    between atoms: _3  and  _6
REMARK    4  A    between atoms: _6  and  _7
REMARK    5  A    between atoms: _10  and  _12
REMARK    6  A    between atoms: _12  and  _13
REMARK    7  A    between atoms: _12  and  _15
REMARK    8  A    between atoms: _15  and  _16
REMARK    9  A    between atoms: _19  and  _21
REMARK   10  A    between atoms: _21  and  _22
REMARK   11  A    between atoms: _21  and  _24
REMARK   12  A    between atoms: _24  and  _25
REMARK   13  A    between atoms: _30  and  _32
REMARK   14  A    between atoms: _32  and  _33
REMARK   15  A    between atoms: _32  and  _35
REMARK   16  A    between atoms: _35  and  _36
REMARK   17  A    between atoms: _36  and  _37
REMARK   18  A    between atoms: _37  and  _38
REMARK   19  A    between atoms: _47  and  _49
REMARK   20  A    between atoms: _49  and  _50
REMARK   21  A    between atoms: _49  and  _52
REMARK   22  A    between atoms: _52  and  _53
REMARK   23  A    between atoms: _56  and  _58
REMARK   24  A    between atoms: _58  and  _59
REMARK   25  A    between atoms: _58  and  _61
REMARK   26  A    between atoms: _61  and  _62
REMARK   27  A    between atoms: _62  and  _63
REMARK   28  A    between atoms: _63  and  _64
REMARK   29  A    between atoms: _64  and  _65
REMARK   30  A    between atoms: _69  and  _71
REMARK   31  A    between atoms: _71  and  _72
REMARK   32  A    between atoms: _71  and  _74
REMARK   33  A    between atoms: _74  and  _75
REMARK   34  A    between atoms: _80  and  _81
REMARK   35  A    between atoms: _83  and  _85
REMARK   36  A    between atoms: _85  and  _86
REMARK   37  A    between atoms: _85  and  _88
REMARK   38  A    between atoms: _88  and  _89
REMARK   39  A    between atoms: _99  and  _101
REMARK   40  A    between atoms: _101  and  _102
REMARK   41  A    between atoms: _101  and  _104
REMARK   42  A    between atoms: _104  and  _105
REMARK   43  A    between atoms: _105  and  _106
REMARK   44  A    between atoms: _106  and  _107
REMARK   45  A    between atoms: _107  and  _108
REMARK   46  A    between atoms: _112  and  _114
REMARK   47  A    between atoms: _114  and  _115
REMARK   48  A    between atoms: _114  and  _117
REMARK   49  A    between atoms: _117  and  _118
REMARK   50  A    between atoms: _118  and  _119
REMARK   51  A    between atoms: _124  and  _126
REMARK   52  A    between atoms: _126  and  _127
REMARK   53  A    between atoms: _126  and  _129
REMARK   54  A    between atoms: _129  and  _130
REMARK   55  A    between atoms: _132  and  _134
REMARK   56  A    between atoms: _134  and  _135
REMARK   57  A    between atoms: _134  and  _137
REMARK   58  A    between atoms: _137  and  _138
REMARK   59  A    between atoms: _143  and  _144
REMARK   60  A    between atoms: _146  and  _148
REMARK   61  A    between atoms: _148  and  _149
REMARK   62  A    between atoms: _148  and  _151
REMARK   63  A    between atoms: _151  and  _152
REMARK   64  A    between atoms: _157  and  _159
REMARK   65  A    between atoms: _159  and  _160
REMARK   66  A    between atoms: _159  and  _162
REMARK   67  A    between atoms: _162  and  _163
REMARK   68  A    between atoms: _166  and  _168
REMARK   69  A    between atoms: _168  and  _169
REMARK   70  A    between atoms: _168  and  _171
REMARK   71  A    between atoms: _171  and  _172
REMARK   72  A    between atoms: _172  and  _173
REMARK   73  A    between atoms: _173  and  _174
REMARK   74  A    between atoms: _183  and  _185
REMARK   75  A    between atoms: _185  and  _186
REMARK   76  A    between atoms: _185  and  _188
REMARK   77  A    between atoms: _188  and  _189
REMARK   78  A    between atoms: _194  and  _195
REMARK   79  A    between atoms: _197  and  _199
REMARK   80  A    between atoms: _199  and  _200
REMARK   81  A    between atoms: _199  and  _202
REMARK   82  A    between atoms: _202  and  _203
REMARK   83  A    between atoms: _209  and  _211
REMARK   84  A    between atoms: _211  and  _212
REMARK   85  A    between atoms: _211  and  _214
REMARK   86  A    between atoms: _214  and  _215
REMARK   87  A    between atoms: _215  and  _216
REMARK   88  A    between atoms: _216  and  _217
REMARK   89  A    between atoms: _226  and  _228
REMARK   90  A    between atoms: _228  and  _229
REMARK   91  A    between atoms: _228  and  _231
REMARK   92  A    between atoms: _231  and  _232
REMARK   93  A    between atoms: _237  and  _239
REMARK   94  A    between atoms: _239  and  _240
REMARK   95  A    between atoms: _243  and  _245
REMARK   96  A    between atoms: _245  and  _246
REMARK   97  A    between atoms: _245  and  _248
REMARK   98  A    between atoms: _248  and  _249
REMARK   99  A    between atoms: _249  and  _250
REMARK  100  A    between atoms: _250  and  _251
REMARK  101  A    between atoms: _251  and  _252
REMARK  102  A    between atoms: _256  and  _258
REMARK  103  A    between atoms: _258  and  _259
REMARK  104  A    between atoms: _258  and  _261
REMARK  105  A    between atoms: _261  and  _262
REMARK  106  A    between atoms: _265  and  _267
REMARK  107  A    between atoms: _267  and  _268
REMARK  108  A    between atoms: _267  and  _270
REMARK  109  A    between atoms: _270  and  _271
REMARK  110  A    between atoms: _271  and  _272
REMARK  111  A    between atoms: _272  and  _274
REMARK  112  A    between atoms: _275  and  _277
REMARK  113  A    between atoms: _277  and  _278
REMARK  114  A    between atoms: _277  and  _280
REMARK  115  A    between atoms: _280  and  _281
REMARK  116  A    between atoms: _284  and  _286
REMARK  117  A    between atoms: _286  and  _287
REMARK  118  A    between atoms: _286  and  _289
REMARK  119  A    between atoms: _289  and  _290
REMARK  120  A    between atoms: _293  and  _295
REMARK  121  A    between atoms: _295  and  _296
REMARK  122  A    between atoms: _295  and  _298
REMARK  123  A    between atoms: _298  and  _299
REMARK  124  A    between atoms: _305  and  _306
REMARK  125  A    between atoms: _311  and  _313
REMARK  126  A    between atoms: _313  and  _314
REMARK  127  A    between atoms: _316  and  _318
REMARK  128  A    between atoms: _318  and  _319
REMARK  129  A    between atoms: _318  and  _321
REMARK  130  A    between atoms: _321  and  _322
REMARK  131  A    between atoms: _324  and  _326
REMARK  132  A    between atoms: _326  and  _327
REMARK  133  A    between atoms: _326  and  _329
REMARK  134  A    between atoms: _329  and  _330
REMARK  135  A    between atoms: _335  and  _336
REMARK  136  A    between atoms: _338  and  _340
REMARK  137  A    between atoms: _340  and  _341
REMARK  138  A    between atoms: _340  and  _343
REMARK  139  A    between atoms: _343  and  _344
REMARK  140  A    between atoms: _349  and  _350
REMARK  141  A    between atoms: _352  and  _354
REMARK  142  A    between atoms: _354  and  _355
REMARK  143  A    between atoms: _354  and  _357
REMARK  144  A    between atoms: _357  and  _358
REMARK  145  A    between atoms: _361  and  _363
REMARK  146  A    between atoms: _363  and  _364
REMARK                            x       y       z     vdW  Elec       q    Type
REMARK                         _______ _______ _______ _____ _____    ______ ____
ROOT
ATOM      1  O   HOH     1      10.781   2.576   1.669  0.00  0.00    +0.000 OA
ENDROOT
TORSDOF 0
REMARK  Name = ../refined-set-2016/3hzk/3hzk_pocket.pdb
REMARK  146 active torsions:
REMARK  status: ('A' for Active; 'I' for Inactive)
REMARK    1  A    between atoms: _1  and  _3
REMARK    2  A    between atoms: _3  and  _4
REMARK    3  A    between atoms: _3  and  _6
REMARK    4  A    between atoms: _6  and  _7
REMARK    5  A    between atoms: _10  and  _12
REMARK    6  A    between atoms: _12  and  _13
REMARK    7  A    between atoms: _12  and  _15
REMARK    8  A    between atoms: _15  and  _16
REMARK    9  A    between atoms: _19  and  _21
REMARK   10  A    between atoms: _21  and  _22
REMARK   11  A    between atoms: _21  and  _24
REMARK   12  A    between atoms: _24  and  _25
REMARK   13  A    between atoms: _30  and  _32
REMARK   14  A    between atoms: _32  and  _33
REMARK   15  A    between atoms: _32  and  _35
REMARK   16  A    between atoms: _35  and  _36
REMARK   17  A    between atoms: _36  and  _37
REMARK   18  A    between atoms: _37  and  _38
REMARK   19  A    between atoms: _47  and  _49
REMARK   20  A    between atoms: _49  and  _50
REMARK   21  A    between atoms: _49  and  _52
REMARK   22  A    between atoms: _52  and  _53
REMARK   23  A    between atoms: _56  and  _58
REMARK   24  A    between atoms: _58  and  _59
REMARK   25  A    between atoms: _58  and  _61
REMARK   26  A    between atoms: _61  and  _62
REMARK   27  A    between atoms: _62  and  _63
REMARK   28  A    between atoms: _63  and  _64
REMARK   29  A    between atoms: _64  and  _65
REMARK   30  A    between atoms: _69  and  _71
REMARK   31  A    between atoms: _71  and  _72
REMARK   32  A    between atoms: _71  and  _74
REMARK   33  A    between atoms: _74  and  _75
REMARK   34  A    between atoms: _80  and  _81
REMARK   35  A    between atoms: _83  and  _85
REMARK   36  A    between atoms: _85  and  _86
REMARK   37  A    between atoms: _85  and  _88
REMARK   38  A    between atoms: _88  and  _89
REMARK   39  A    between atoms: _99  and  _101
REMARK   40  A    between atoms: _101  and  _102
REMARK   41  A    between atoms: _101  and  _104
REMARK   42  A    between atoms: _104  and  _105
REMARK   43  A    between atoms: _105  and  _106
REMARK   44  A    between atoms: _106  and  _107
REMARK   45  A    between atoms: _107  and  _108
REMARK   46  A    between atoms: _112  and  _114
REMARK   47  A    between atoms: _114  and  _115
REMARK   48  A    between atoms: _114  and  _117
REMARK   49  A    between atoms: _117  and  _118
REMARK   50  A    between atoms: _118  and  _119
REMARK   51  A    between atoms: _124  and  _126
REMARK   52  A    between atoms: _126  and  _127
REMARK   53  A    between atoms: _126  and  _129
REMARK   54  A    between atoms: _129  and  _130
REMARK   55  A    between atoms: _132  and  _134
REMARK   56  A    between atoms: _134  and  _135
REMARK   57  A    between atoms: _134  and  _137
REMARK   58  A    between atoms: _137  and  _138
REMARK   59  A    between atoms: _143  and  _144
REMARK   60  A    between atoms: _146  and  _148
REMARK   61  A    between atoms: _148  and  _149
REMARK   62  A    between atoms: _148  and  _151
REMARK   63  A    between atoms: _151  and  _152
REMARK   64  A    between atoms: _157  and  _159
REMARK   65  A    between atoms: _159  and  _160
REMARK   66  A    between atoms: _159  and  _162
REMARK   67  A    between atoms: _162  and  _163
REMARK   68  A    between atoms: _166  and  _168
REMARK   69  A    between atoms: _168  and  _169
REMARK   70  A    between atoms: _168  and  _171
REMARK   71  A    between atoms: _171  and  _172
REMARK   72  A    between atoms: _172  and  _173
REMARK   73  A    between atoms: _173  and  _174
REMARK   74  A    between atoms: _183  and  _185
REMARK   75  A    between atoms: _185  and  _186
REMARK   76  A    between atoms: _185  and  _188
REMARK   77  A    between atoms: _188  and  _189
REMARK   78  A    between atoms: _194  and  _195
REMARK   79  A    between atoms: _197  and  _199
REMARK   80  A    between atoms: _199  and  _200
REMARK   81  A    between atoms: _199  and  _202
REMARK   82  A    between atoms: _202  and  _203
REMARK   83  A    between atoms: _209  and  _211
REMARK   84  A    between atoms: _211  and  _212
REMARK   85  A    between atoms: _211  and  _214
REMARK   86  A    between atoms: _214  and  _215
REMARK   87  A    between atoms: _215  and  _216
REMARK   88  A    between atoms: _216  and  _217
REMARK   89  A    between atoms: _226  and  _228
REMARK   90  A    between atoms: _228  and  _229
REMARK   91  A    between atoms: _228  and  _231
REMARK   92  A    between atoms: _231  and  _232
REMARK   93  A    between atoms: _237  and  _239
REMARK   94  A    between atoms: _239  and  _240
REMARK   95  A    between atoms: _243  and  _245
REMARK   96  A    between atoms: _245  and  _246
REMARK   97  A    between atoms: _245  and  _248
REMARK   98  A    between atoms: _248  and  _249
REMARK   99  A    between atoms: _249  and  _250
REMARK  100  A    between atoms: _250  and  _251
REMARK  101  A    between atoms: _251  and  _252
REMARK  102  A    between atoms: _256  and  _258
REMARK  103  A    between atoms: _258  and  _259
REMARK  104  A    between atoms: _258  and  _261
REMARK  105  A    between atoms: _261  and  _262
REMARK  106  A    between atoms: _265  and  _267
REMARK  107  A    between atoms: _267  and  _268
REMARK  108  A    between atoms: _267  and  _270
REMARK  109  A    between atoms: _270  and  _271
REMARK  110  A    between atoms: _271  and  _272
REMARK  111  A    between atoms: _272  and  _274
REMARK  112  A    between atoms: _275  and  _277
REMARK  113  A    between atoms: _277  and  _278
REMARK  114  A    between atoms: _277  and  _280
REMARK  115  A    between atoms: _280  and  _281
REMARK  116  A    between atoms: _284  and  _286
REMARK  117  A    between atoms: _286  and  _287
REMARK  118  A    between atoms: _286  and  _289
REMARK  119  A    between atoms: _289  and  _290
REMARK  120  A    between atoms: _293  and  _295
REMARK  121  A    between atoms: _295  and  _296
REMARK  122  A    between atoms: _295  and  _298
REMARK  123  A    between atoms: _298  and  _299
REMARK  124  A    between atoms: _305  and  _306
REMARK  125  A    between atoms: _311  and  _313
REMARK  126  A    between atoms: _313  and  _314
REMARK  127  A    between atoms: _316  and  _318
REMARK  128  A    between atoms: _318  and  _319
REMARK  129  A    between atoms: _318  and  _321
REMARK  130  A    between atoms: _321  and  _322
REMARK  131  A    between atoms: _324  and  _326
REMARK  132  A    between atoms: _326  and  _327
REMARK  133  A    between atoms: _326  and  _329
REMARK  134  A    between atoms: _329  and  _330
REMARK  135  A    between atoms: _335  and  _336
REMARK  136  A    between atoms: _338  and  _340
REMARK  137  A    between atoms: _340  and  _341
REMARK  138  A    between atoms: _340  and  _343
REMARK  139  A    between atoms: _343  and  _344
REMARK  140  A    between atoms: _349  and  _350
REMARK  141  A    between atoms: _352  and  _354
REMARK  142  A    between atoms: _354  and  _355
REMARK  143  A    between atoms: _354  and  _357
REMARK  144  A    between atoms: _357  and  _358
REMARK  145  A    between atoms: _361  and  _363
REMARK  146  A    between atoms: _363  and  _364
REMARK                            x       y       z     vdW  Elec       q    Type
REMARK                         _______ _______ _______ _____ _____    ______ ____
ROOT
ATOM      1  O   HOH     1      12.465   2.399  -1.310  0.00  0.00    +0.000 OA
ENDROOT
TORSDOF 0
REMARK  Name = ../refined-set-2016/3hzk/3hzk_pocket.pdb
REMARK  146 active torsions:
REMARK  status: ('A' for Active; 'I' for Inactive)
REMARK    1  A    between atoms: _1  and  _3
REMARK    2  A    between atoms: _3  and  _4
REMARK    3  A    between atoms: _3  and  _6
REMARK    4  A    between atoms: _6  and  _7
REMARK    5  A    between atoms: _10  and  _12
REMARK    6  A    between atoms: _12  and  _13
REMARK    7  A    between atoms: _12  and  _15
REMARK    8  A    between atoms: _15  and  _16
REMARK    9  A    between atoms: _19  and  _21
REMARK   10  A    between atoms: _21  and  _22
REMARK   11  A    between atoms: _21  and  _24
REMARK   12  A    between atoms: _24  and  _25
REMARK   13  A    between atoms: _30  and  _32
REMARK   14  A    between atoms: _32  and  _33
REMARK   15  A    between atoms: _32  and  _35
REMARK   16  A    between atoms: _35  and  _36
REMARK   17  A    between atoms: _36  and  _37
REMARK   18  A    between atoms: _37  and  _38
REMARK   19  A    between atoms: _47  and  _49
REMARK   20  A    between atoms: _49  and  _50
REMARK   21  A    between atoms: _49  and  _52
REMARK   22  A    between atoms: _52  and  _53
REMARK   23  A    between atoms: _56  and  _58
REMARK   24  A    between atoms: _58  and  _59
REMARK   25  A    between atoms: _58  and  _61
REMARK   26  A    between atoms: _61  and  _62
REMARK   27  A    between atoms: _62  and  _63
REMARK   28  A    between atoms: _63  and  _64
REMARK   29  A    between atoms: _64  and  _65
REMARK   30  A    between atoms: _69  and  _71
REMARK   31  A    between atoms: _71  and  _72
REMARK   32  A    between atoms: _71  and  _74
REMARK   33  A    between atoms: _74  and  _75
REMARK   34  A    between atoms: _80  and  _81
REMARK   35  A    between atoms: _83  and  _85
REMARK   36  A    between atoms: _85  and  _86
REMARK   37  A    between atoms: _85  and  _88
REMARK   38  A    between atoms: _88  and  _89
REMARK   39  A    between atoms: _99  and  _101
REMARK   40  A    between atoms: _101  and  _102
REMARK   41  A    between atoms: _101  and  _104
REMARK   42  A    between atoms: _104  and  _105
REMARK   43  A    between atoms: _105  and  _106
REMARK   44  A    between atoms: _106  and  _107
REMARK   45  A    between atoms: _107  and  _108
REMARK   46  A    between atoms: _112  and  _114
REMARK   47  A    between atoms: _114  and  _115
REMARK   48  A    between atoms: _114  and  _117
REMARK   49  A    between atoms: _117  and  _118
REMARK   50  A    between atoms: _118  and  _119
REMARK   51  A    between atoms: _124  and  _126
REMARK   52  A    between atoms: _126  and  _127
REMARK   53  A    between atoms: _126  and  _129
REMARK   54  A    between atoms: _129  and  _130
REMARK   55  A    between atoms: _132  and  _134
REMARK   56  A    between atoms: _134  and  _135
REMARK   57  A    between atoms: _134  and  _137
REMARK   58  A    between atoms: _137  and  _138
REMARK   59  A    between atoms: _143  and  _144
REMARK   60  A    between atoms: _146  and  _148
REMARK   61  A    between atoms: _148  and  _149
REMARK   62  A    between atoms: _148  and  _151
REMARK   63  A    between atoms: _151  and  _152
REMARK   64  A    between atoms: _157  and  _159
REMARK   65  A    between atoms: _159  and  _160
REMARK   66  A    between atoms: _159  and  _162
REMARK   67  A    between atoms: _162  and  _163
REMARK   68  A    between atoms: _166  and  _168
REMARK   69  A    between atoms: _168  and  _169
REMARK   70  A    between atoms: _168  and  _171
REMARK   71  A    between atoms: _171  and  _172
REMARK   72  A    between atoms: _172  and  _173
REMARK   73  A    between atoms: _173  and  _174
REMARK   74  A    between atoms: _183  and  _185
REMARK   75  A    between atoms: _185  and  _186
REMARK   76  A    between atoms: _185  and  _188
REMARK   77  A    between atoms: _188  and  _189
REMARK   78  A    between atoms: _194  and  _195
REMARK   79  A    between atoms: _197  and  _199
REMARK   80  A    between atoms: _199  and  _200
REMARK   81  A    between atoms: _199  and  _202
REMARK   82  A    between atoms: _202  and  _203
REMARK   83  A    between atoms: _209  and  _211
REMARK   84  A    between atoms: _211  and  _212
REMARK   85  A    between atoms: _211  and  _214
REMARK   86  A    between atoms: _214  and  _215
REMARK   87  A    between atoms: _215  and  _216
REMARK   88  A    between atoms: _216  and  _217
REMARK   89  A    between atoms: _226  and  _228
REMARK   90  A    between atoms: _228  and  _229
REMARK   91  A    between atoms: _228  and  _231
REMARK   92  A    between atoms: _231  and  _232
REMARK   93  A    between atoms: _237  and  _239
REMARK   94  A    between atoms: _239  and  _240
REMARK   95  A    between atoms: _243  and  _245
REMARK   96  A    between atoms: _245  and  _246
REMARK   97  A    between atoms: _245  and  _248
REMARK   98  A    between atoms: _248  and  _249
REMARK   99  A    between atoms: _249  and  _250
REMARK  100  A    between atoms: _250  and  _251
REMARK  101  A    between atoms: _251  and  _252
REMARK  102  A    between atoms: _256  and  _258
REMARK  103  A    between atoms: _258  and  _259
REMARK  104  A    between atoms: _258  and  _261
REMARK  105  A    between atoms: _261  and  _262
REMARK  106  A    between atoms: _265  and  _267
REMARK  107  A    between atoms: _267  and  _268
REMARK  108  A    between atoms: _267  and  _270
REMARK  109  A    between atoms: _270  and  _271
REMARK  110  A    between atoms: _271  and  _272
REMARK  111  A    between atoms: _272  and  _274
REMARK  112  A    between atoms: _275  and  _277
REMARK  113  A    between atoms: _277  and  _278
REMARK  114  A    between atoms: _277  and  _280
REMARK  115  A    between atoms: _280  and  _281
REMARK  116  A    between atoms: _284  and  _286
REMARK  117  A    between atoms: _286  and  _287
REMARK  118  A    between atoms: _286  and  _289
REMARK  119  A    between atoms: _289  and  _290
REMARK  120  A    between atoms: _293  and  _295
REMARK  121  A    between atoms: _295  and  _296
REMARK  122  A    between atoms: _295  and  _298
REMARK  123  A    between atoms: _298  and  _299
REMARK  124  A    between atoms: _305  and  _306
REMARK  125  A    between atoms: _311  and  _313
REMARK  126  A    between atoms: _313  and  _314
REMARK  127  A    between atoms: _316  and  _318
REMARK  128  A    between atoms: _318  and  _319
REMARK  129  A    between atoms: _318  and  _321
REMARK  130  A    between atoms: _321  and  _322
REMARK  131  A    between atoms: _324  and  _326
REMARK  132  A    between atoms: _326  and  _327
REMARK  133  A    between atoms: _326  and  _329
REMARK  134  A    between atoms: _329  and  _330
REMARK  135  A    between atoms: _335  and  _336
REMARK  136  A    between atoms: _338  and  _340
REMARK  137  A    between atoms: _340  and  _341
REMARK  138  A    between atoms: _340  and  _343
REMARK  139  A    between atoms: _343  and  _344
REMARK  140  A    between atoms: _349  and  _350
REMARK  141  A    between atoms: _352  and  _354
REMARK  142  A    between atoms: _354  and  _355
REMARK  143  A    between atoms: _354  and  _357
REMARK  144  A    between atoms: _357  and  _358
REMARK  145  A    between atoms: _361  and  _363
REMARK  146  A    between atoms: _363  and  _364
REMARK                            x       y       z     vdW  Elec       q    Type
REMARK                         _______ _______ _______ _____ _____    ______ ____
ROOT
ATOM      1  O   HOH     1       4.905  -6.625  -5.072  0.00  0.00    +0.000 OA
ENDROOT
TORSDOF 0
REMARK  Name = ../refined-set-2016/3hzk/3hzk_pocket.pdb
REMARK  146 active torsions:
REMARK  status: ('A' for Active; 'I' for Inactive)
REMARK    1  A    between atoms: _1  and  _3
REMARK    2  A    between atoms: _3  and  _4
REMARK    3  A    between atoms: _3  and  _6
REMARK    4  A    between atoms: _6  and  _7
REMARK    5  A    between atoms: _10  and  _12
REMARK    6  A    between atoms: _12  and  _13
REMARK    7  A    between atoms: _12  and  _15
REMARK    8  A    between atoms: _15  and  _16
REMARK    9  A    between atoms: _19  and  _21
REMARK   10  A    between atoms: _21  and  _22
REMARK   11  A    between atoms: _21  and  _24
REMARK   12  A    between atoms: _24  and  _25
REMARK   13  A    between atoms: _30  and  _32
REMARK   14  A    between atoms: _32  and  _33
REMARK   15  A    between atoms: _32  and  _35
REMARK   16  A    between atoms: _35  and  _36
REMARK   17  A    between atoms: _36  and  _37
REMARK   18  A    between atoms: _37  and  _38
REMARK   19  A    between atoms: _47  and  _49
REMARK   20  A    between atoms: _49  and  _50
REMARK   21  A    between atoms: _49  and  _52
REMARK   22  A    between atoms: _52  and  _53
REMARK   23  A    between atoms: _56  and  _58
REMARK   24  A    between atoms: _58  and  _59
REMARK   25  A    between atoms: _58  and  _61
REMARK   26  A    between atoms: _61  and  _62
REMARK   27  A    between atoms: _62  and  _63
REMARK   28  A    between atoms: _63  and  _64
REMARK   29  A    between atoms: _64  and  _65
REMARK   30  A    between atoms: _69  and  _71
REMARK   31  A    between atoms: _71  and  _72
REMARK   32  A    between atoms: _71  and  _74
REMARK   33  A    between atoms: _74  and  _75
REMARK   34  A    between atoms: _80  and  _81
REMARK   35  A    between atoms: _83  and  _85
REMARK   36  A    between atoms: _85  and  _86
REMARK   37  A    between atoms: _85  and  _88
REMARK   38  A    between atoms: _88  and  _89
REMARK   39  A    between atoms: _99  and  _101
REMARK   40  A    between atoms: _101  and  _102
REMARK   41  A    between atoms: _101  and  _104
REMARK   42  A    between atoms: _104  and  _105
REMARK   43  A    between atoms: _105  and  _106
REMARK   44  A    between atoms: _106  and  _107
REMARK   45  A    between atoms: _107  and  _108
REMARK   46  A    between atoms: _112  and  _114
REMARK   47  A    between atoms: _114  and  _115
REMARK   48  A    between atoms: _114  and  _117
REMARK   49  A    between atoms: _117  and  _118
REMARK   50  A    between atoms: _118  and  _119
REMARK   51  A    between atoms: _124  and  _126
REMARK   52  A    between atoms: _126  and  _127
REMARK   53  A    between atoms: _126  and  _129
REMARK   54  A    between atoms: _129  and  _130
REMARK   55  A    between atoms: _132  and  _134
REMARK   56  A    between atoms: _134  and  _135
REMARK   57  A    between atoms: _134  and  _137
REMARK   58  A    between atoms: _137  and  _138
REMARK   59  A    between atoms: _143  and  _144
REMARK   60  A    between atoms: _146  and  _148
REMARK   61  A    between atoms: _148  and  _149
REMARK   62  A    between atoms: _148  and  _151
REMARK   63  A    between atoms: _151  and  _152
REMARK   64  A    between atoms: _157  and  _159
REMARK   65  A    between atoms: _159  and  _160
REMARK   66  A    between atoms: _159  and  _162
REMARK   67  A    between atoms: _162  and  _163
REMARK   68  A    between atoms: _166  and  _168
REMARK   69  A    between atoms: _168  and  _169
REMARK   70  A    between atoms: _168  and  _171
REMARK   71  A    between atoms: _171  and  _172
REMARK   72  A    between atoms: _172  and  _173
REMARK   73  A    between atoms: _173  and  _174
REMARK   74  A    between atoms: _183  and  _185
REMARK   75  A    between atoms: _185  and  _186
REMARK   76  A    between atoms: _185  and  _188
REMARK   77  A    between atoms: _188  and  _189
REMARK   78  A    between atoms: _194  and  _195
REMARK   79  A    between atoms: _197  and  _199
REMARK   80  A    between atoms: _199  and  _200
REMARK   81  A    between atoms: _199  and  _202
REMARK   82  A    between atoms: _202  and  _203
REMARK   83  A    between atoms: _209  and  _211
REMARK   84  A    between atoms: _211  and  _212
REMARK   85  A    between atoms: _211  and  _214
REMARK   86  A    between atoms: _214  and  _215
REMARK   87  A    between atoms: _215  and  _216
REMARK   88  A    between atoms: _216  and  _217
REMARK   89  A    between atoms: _226  and  _228
REMARK   90  A    between atoms: _228  and  _229
REMARK   91  A    between atoms: _228  and  _231
REMARK   92  A    between atoms: _231  and  _232
REMARK   93  A    between atoms: _237  and  _239
REMARK   94  A    between atoms: _239  and  _240
REMARK   95  A    between atoms: _243  and  _245
REMARK   96  A    between atoms: _245  and  _246
REMARK   97  A    between atoms: _245  and  _248
REMARK   98  A    between atoms: _248  and  _249
REMARK   99  A    between atoms: _249  and  _250
REMARK  100  A    between atoms: _250  and  _251
REMARK  101  A    between atoms: _251  and  _252
REMARK  102  A    between atoms: _256  and  _258
REMARK  103  A    between atoms: _258  and  _259
REMARK  104  A    between atoms: _258  and  _261
REMARK  105  A    between atoms: _261  and  _262
REMARK  106  A    between atoms: _265  and  _267
REMARK  107  A    between atoms: _267  and  _268
REMARK  108  A    between atoms: _267  and  _270
REMARK  109  A    between atoms: _270  and  _271
REMARK  110  A    between atoms: _271  and  _272
REMARK  111  A    between atoms: _272  and  _274
REMARK  112  A    between atoms: _275  and  _277
REMARK  113  A    between atoms: _277  and  _278
REMARK  114  A    between atoms: _277  and  _280
REMARK  115  A    between atoms: _280  and  _281
REMARK  116  A    between atoms: _284  and  _286
REMARK  117  A    between atoms: _286  and  _287
REMARK  118  A    between atoms: _286  and  _289
REMARK  119  A    between atoms: _289  and  _290
REMARK  120  A    between atoms: _293  and  _295
REMARK  121  A    between atoms: _295  and  _296
REMARK  122  A    between atoms: _295  and  _298
REMARK  123  A    between atoms: _298  and  _299
REMARK  124  A    between atoms: _305  and  _306
REMARK  125  A    between atoms: _311  and  _313
REMARK  126  A    between atoms: _313  and  _314
REMARK  127  A    between atoms: _316  and  _318
REMARK  128  A    between atoms: _318  and  _319
REMARK  129  A    between atoms: _318  and  _321
REMARK  130  A    between atoms: _321  and  _322
REMARK  131  A    between atoms: _324  and  _326
REMARK  132  A    between atoms: _326  and  _327
REMARK  133  A    between atoms: _326  and  _329
REMARK  134  A    between atoms: _329  and  _330
REMARK  135  A    between atoms: _335  and  _336
REMARK  136  A    between atoms: _338  and  _340
REMARK  137  A    between atoms: _340  and  _341
REMARK  138  A    between atoms: _340  and  _343
REMARK  139  A    between atoms: _343  and  _344
REMARK  140  A    between atoms: _349  and  _350
REMARK  141  A    between atoms: _352  and  _354
REMARK  142  A    between atoms: _354  and  _355
REMARK  143  A    between atoms: _354  and  _357
REMARK  144  A    between atoms: _357  and  _358
REMARK  145  A    between atoms: _361  and  _363
REMARK  146  A    between atoms: _363  and  _364
REMARK                            x       y       z     vdW  Elec       q    Type
REMARK                         _______ _______ _______ _____ _____    ______ ____
ROOT
ATOM      1  O   HOH     1       7.137   6.613  -3.379  0.00  0.00    +0.000 OA
ENDROOT
TORSDOF 0
REMARK  Name = ../refined-set-2016/3hzk/3hzk_pocket.pdb
REMARK  146 active torsions:
REMARK  status: ('A' for Active; 'I' for Inactive)
REMARK    1  A    between atoms: _1  and  _3
REMARK    2  A    between atoms: _3  and  _4
REMARK    3  A    between atoms: _3  and  _6
REMARK    4  A    between atoms: _6  and  _7
REMARK    5  A    between atoms: _10  and  _12
REMARK    6  A    between atoms: _12  and  _13
REMARK    7  A    between atoms: _12  and  _15
REMARK    8  A    between atoms: _15  and  _16
REMARK    9  A    between atoms: _19  and  _21
REMARK   10  A    between atoms: _21  and  _22
REMARK   11  A    between atoms: _21  and  _24
REMARK   12  A    between atoms: _24  and  _25
REMARK   13  A    between atoms: _30  and  _32
REMARK   14  A    between atoms: _32  and  _33
REMARK   15  A    between atoms: _32  and  _35
REMARK   16  A    between atoms: _35  and  _36
REMARK   17  A    between atoms: _36  and  _37
REMARK   18  A    between atoms: _37  and  _38
REMARK   19  A    between atoms: _47  and  _49
REMARK   20  A    between atoms: _49  and  _50
REMARK   21  A    between atoms: _49  and  _52
REMARK   22  A    between atoms: _52  and  _53
REMARK   23  A    between atoms: _56  and  _58
REMARK   24  A    between atoms: _58  and  _59
REMARK   25  A    between atoms: _58  and  _61
REMARK   26  A    between atoms: _61  and  _62
REMARK   27  A    between atoms: _62  and  _63
REMARK   28  A    between atoms: _63  and  _64
REMARK   29  A    between atoms: _64  and  _65
REMARK   30  A    between atoms: _69  and  _71
REMARK   31  A    between atoms: _71  and  _72
REMARK   32  A    between atoms: _71  and  _74
REMARK   33  A    between atoms: _74  and  _75
REMARK   34  A    between atoms: _80  and  _81
REMARK   35  A    between atoms: _83  and  _85
REMARK   36  A    between atoms: _85  and  _86
REMARK   37  A    between atoms: _85  and  _88
REMARK   38  A    between atoms: _88  and  _89
REMARK   39  A    between atoms: _99  and  _101
REMARK   40  A    between atoms: _101  and  _102
REMARK   41  A    between atoms: _101  and  _104
REMARK   42  A    between atoms: _104  and  _105
REMARK   43  A    between atoms: _105  and  _106
REMARK   44  A    between atoms: _106  and  _107
REMARK   45  A    between atoms: _107  and  _108
REMARK   46  A    between atoms: _112  and  _114
REMARK   47  A    between atoms: _114  and  _115
REMARK   48  A    between atoms: _114  and  _117
REMARK   49  A    between atoms: _117  and  _118
REMARK   50  A    between atoms: _118  and  _119
REMARK   51  A    between atoms: _124  and  _126
REMARK   52  A    between atoms: _126  and  _127
REMARK   53  A    between atoms: _126  and  _129
REMARK   54  A    between atoms: _129  and  _130
REMARK   55  A    between atoms: _132  and  _134
REMARK   56  A    between atoms: _134  and  _135
REMARK   57  A    between atoms: _134  and  _137
REMARK   58  A    between atoms: _137  and  _138
REMARK   59  A    between atoms: _143  and  _144
REMARK   60  A    between atoms: _146  and  _148
REMARK   61  A    between atoms: _148  and  _149
REMARK   62  A    between atoms: _148  and  _151
REMARK   63  A    between atoms: _151  and  _152
REMARK   64  A    between atoms: _157  and  _159
REMARK   65  A    between atoms: _159  and  _160
REMARK   66  A    between atoms: _159  and  _162
REMARK   67  A    between atoms: _162  and  _163
REMARK   68  A    between atoms: _166  and  _168
REMARK   69  A    between atoms: _168  and  _169
REMARK   70  A    between atoms: _168  and  _171
REMARK   71  A    between atoms: _171  and  _172
REMARK   72  A    between atoms: _172  and  _173
REMARK   73  A    between atoms: _173  and  _174
REMARK   74  A    between atoms: _183  and  _185
REMARK   75  A    between atoms: _185  and  _186
REMARK   76  A    between atoms: _185  and  _188
REMARK   77  A    between atoms: _188  and  _189
REMARK   78  A    between atoms: _194  and  _195
REMARK   79  A    between atoms: _197  and  _199
REMARK   80  A    between atoms: _199  and  _200
REMARK   81  A    between atoms: _199  and  _202
REMARK   82  A    between atoms: _202  and  _203
REMARK   83  A    between atoms: _209  and  _211
REMARK   84  A    between atoms: _211  and  _212
REMARK   85  A    between atoms: _211  and  _214
REMARK   86  A    between atoms: _214  and  _215
REMARK   87  A    between atoms: _215  and  _216
REMARK   88  A    between atoms: _216  and  _217
REMARK   89  A    between atoms: _226  and  _228
REMARK   90  A    between atoms: _228  and  _229
REMARK   91  A    between atoms: _228  and  _231
REMARK   92  A    between atoms: _231  and  _232
REMARK   93  A    between atoms: _237  and  _239
REMARK   94  A    between atoms: _239  and  _240
REMARK   95  A    between atoms: _243  and  _245
REMARK   96  A    between atoms: _245  and  _246
REMARK   97  A    between atoms: _245  and  _248
REMARK   98  A    between atoms: _248  and  _249
REMARK   99  A    between atoms: _249  and  _250
REMARK  100  A    between atoms: _250  and  _251
REMARK  101  A    between atoms: _251  and  _252
REMARK  102  A    between atoms: _256  and  _258
REMARK  103  A    between atoms: _258  and  _259
REMARK  104  A    between atoms: _258  and  _261
REMARK  105  A    between atoms: _261  and  _262
REMARK  106  A    between atoms: _265  and  _267
REMARK  107  A    between atoms: _267  and  _268
REMARK  108  A    between atoms: _267  and  _270
REMARK  109  A    between atoms: _270  and  _271
REMARK  110  A    between atoms: _271  and  _272
REMARK  111  A    between atoms: _272  and  _274
REMARK  112  A    between atoms: _275  and  _277
REMARK  113  A    between atoms: _277  and  _278
REMARK  114  A    between atoms: _277  and  _280
REMARK  115  A    between atoms: _280  and  _281
REMARK  116  A    between atoms: _284  and  _286
REMARK  117  A    between atoms: _286  and  _287
REMARK  118  A    between atoms: _286  and  _289
REMARK  119  A    between atoms: _289  and  _290
REMARK  120  A    between atoms: _293  and  _295
REMARK  121  A    between atoms: _295  and  _296
REMARK  122  A    between atoms: _295  and  _298
REMARK  123  A    between atoms: _298  and  _299
REMARK  124  A    between atoms: _305  and  _306
REMARK  125  A    between atoms: _311  and  _313
REMARK  126  A    between atoms: _313  and  _314
REMARK  127  A    between atoms: _316  and  _318
REMARK  128  A    between atoms: _318  and  _319
REMARK  129  A    between atoms: _318  and  _321
REMARK  130  A    between atoms: _321  and  _322
REMARK  131  A    between atoms: _324  and  _326
REMARK  132  A    between atoms: _326  and  _327
REMARK  133  A    between atoms: _326  and  _329
REMARK  134  A    between atoms: _329  and  _330
REMARK  135  A    between atoms: _335  and  _336
REMARK  136  A    between atoms: _338  and  _340
REMARK  137  A    between atoms: _340  and  _341
REMARK  138  A    between atoms: _340  and  _343
REMARK  139  A    between atoms: _343  and  _344
REMARK  140  A    between atoms: _349  and  _350
REMARK  141  A    between atoms: _352  and  _354
REMARK  142  A    between atoms: _354  and  _355
REMARK  143  A    between atoms: _354  and  _357
REMARK  144  A    between atoms: _357  and  _358
REMARK  145  A    between atoms: _361  and  _363
REMARK  146  A    between atoms: _363  and  _364
REMARK                            x       y       z     vdW  Elec       q    Type
REMARK                         _______ _______ _______ _____ _____    ______ ____
ROOT
ATOM      1  O   HOH     1      12.851   5.182  -1.869  0.00  0.00    +0.000 OA
ENDROOT
TORSDOF 0
