REMARK  Name = ../refined-set-2016/1bxr/1bxr_pocket.pdb
REMARK  280 active torsions:
REMARK  status: ('A' for Active; 'I' for Inactive)
REMARK    1  A    between atoms: _1  and  _3
REMARK    2  A    between atoms: _3  and  _4
REMARK    3  A    between atoms: _6  and  _8
REMARK    4  A    between atoms: _8  and  _9
REMARK    5  A    between atoms: _8  and  _11
REMARK    6  A    between atoms: _11  and  _12
REMARK    7  A    between atoms: _12  and  _13
REMARK    8  A    between atoms: _18  and  _20
REMARK    9  A    between atoms: _20  and  _21
REMARK   10  A    between atoms: _20  and  _23
REMARK   11  A    between atoms: _23  and  _24
REMARK   12  A    between atoms: _30  and  _32
REMARK   13  A    between atoms: _32  and  _33
REMARK   14  A    between atoms: _32  and  _35
REMARK   15  A    between atoms: _35  and  _36
REMARK   16  A    between atoms: _36  and  _37
REMARK   17  A    between atoms: _42  and  _44
REMARK   18  A    between atoms: _44  and  _45
REMARK   19  A    between atoms: _48  and  _50
REMARK   20  A    between atoms: _50  and  _51
REMARK   21  A    between atoms: _50  and  _53
REMARK   22  A    between atoms: _53  and  _54
REMARK   23  A    between atoms: _54  and  _55
REMARK   24  A    between atoms: _58  and  _60
REMARK   25  A    between atoms: _60  and  _61
REMARK   26  A    between atoms: _60  and  _63
REMARK   27  A    between atoms: _63  and  _64
REMARK   28  A    between atoms: _65  and  _66
REMARK   29  A    between atoms: _75  and  _77
REMARK   30  A    between atoms: _77  and  _78
REMARK   31  A    between atoms: _77  and  _80
REMARK   32  A    between atoms: _80  and  _81
REMARK   33  A    between atoms: _84  and  _86
REMARK   34  A    between atoms: _86  and  _87
REMARK   35  A    between atoms: _90  and  _92
REMARK   36  A    between atoms: _92  and  _93
REMARK   37  A    between atoms: _92  and  _95
REMARK   38  A    between atoms: _95  and  _96
REMARK   39  A    between atoms: _96  and  _97
REMARK   40  A    between atoms: _97  and  _98
REMARK   41  A    between atoms: _107  and  _109
REMARK   42  A    between atoms: _109  and  _110
REMARK   43  A    between atoms: _109  and  _112
REMARK   44  A    between atoms: _112  and  _113
REMARK   45  A    between atoms: _116  and  _117
REMARK   46  A    between atoms: _122  and  _124
REMARK   47  A    between atoms: _124  and  _125
REMARK   48  A    between atoms: _124  and  _127
REMARK   49  A    between atoms: _129  and  _131
REMARK   50  A    between atoms: _131  and  _132
REMARK   51  A    between atoms: _131  and  _134
REMARK   52  A    between atoms: _134  and  _135
REMARK   53  A    between atoms: _138  and  _140
REMARK   54  A    between atoms: _140  and  _141
REMARK   55  A    between atoms: _140  and  _143
REMARK   56  A    between atoms: _143  and  _144
REMARK   57  A    between atoms: _147  and  _149
REMARK   58  A    between atoms: _149  and  _150
REMARK   59  A    between atoms: _149  and  _152
REMARK   60  A    between atoms: _152  and  _153
REMARK   61  A    between atoms: _153  and  _154
REMARK   62  A    between atoms: _154  and  _155
REMARK   63  A    between atoms: _165  and  _166
REMARK   64  A    between atoms: _171  and  _173
REMARK   65  A    between atoms: _173  and  _174
REMARK   66  A    between atoms: _173  and  _176
REMARK   67  A    between atoms: _176  and  _177
REMARK   68  A    between atoms: _179  and  _181
REMARK   69  A    between atoms: _181  and  _182
REMARK   70  A    between atoms: _181  and  _184
REMARK   71  A    between atoms: _184  and  _185
REMARK   72  A    between atoms: _191  and  _193
REMARK   73  A    between atoms: _193  and  _194
REMARK   74  A    between atoms: _193  and  _196
REMARK   75  A    between atoms: _196  and  _197
REMARK   76  A    between atoms: _200  and  _202
REMARK   77  A    between atoms: _202  and  _203
REMARK   78  A    between atoms: _202  and  _205
REMARK   79  A    between atoms: _205  and  _206
REMARK   80  A    between atoms: _206  and  _207
REMARK   81  A    between atoms: _209  and  _211
REMARK   82  A    between atoms: _211  and  _212
REMARK   83  A    between atoms: _214  and  _216
REMARK   84  A    between atoms: _216  and  _217
REMARK   85  A    between atoms: _219  and  _221
REMARK   86  A    between atoms: _221  and  _222
REMARK   87  A    between atoms: _221  and  _224
REMARK   88  A    between atoms: _224  and  _225
REMARK   89  A    between atoms: _227  and  _229
REMARK   90  A    between atoms: _229  and  _230
REMARK   91  A    between atoms: _232  and  _234
REMARK   92  A    between atoms: _234  and  _235
REMARK   93  A    between atoms: _237  and  _239
REMARK   94  A    between atoms: _239  and  _240
REMARK   95  A    between atoms: _242  and  _244
REMARK   96  A    between atoms: _244  and  _245
REMARK   97  A    between atoms: _244  and  _247
REMARK   98  A    between atoms: _247  and  _248
REMARK   99  A    between atoms: _251  and  _253
REMARK  100  A    between atoms: _253  and  _254
REMARK  101  A    between atoms: _253  and  _256
REMARK  102  A    between atoms: _256  and  _257
REMARK  103  A    between atoms: _262  and  _263
REMARK  104  A    between atoms: _265  and  _267
REMARK  105  A    between atoms: _267  and  _268
REMARK  106  A    between atoms: _267  and  _270
REMARK  107  A    between atoms: _270  and  _271
REMARK  108  A    between atoms: _274  and  _276
REMARK  109  A    between atoms: _276  and  _277
REMARK  110  A    between atoms: _276  and  _279
REMARK  111  A    between atoms: _279  and  _280
REMARK  112  A    between atoms: _283  and  _285
REMARK  113  A    between atoms: _285  and  _286
REMARK  114  A    between atoms: _285  and  _288
REMARK  115  A    between atoms: _288  and  _289
REMARK  116  A    between atoms: _292  and  _294
REMARK  117  A    between atoms: _294  and  _295
REMARK  118  A    between atoms: _294  and  _297
REMARK  119  A    between atoms: _297  and  _298
REMARK  120  A    between atoms: _298  and  _299
REMARK  121  A    between atoms: _302  and  _304
REMARK  122  A    between atoms: _304  and  _305
REMARK  123  A    between atoms: _304  and  _307
REMARK  124  A    between atoms: _307  and  _308
REMARK  125  A    between atoms: _310  and  _312
REMARK  126  A    between atoms: _312  and  _313
REMARK  127  A    between atoms: _312  and  _315
REMARK  128  A    between atoms: _315  and  _316
REMARK  129  A    between atoms: _319  and  _321
REMARK  130  A    between atoms: _321  and  _322
REMARK  131  A    between atoms: _321  and  _324
REMARK  132  A    between atoms: _324  and  _325
REMARK  133  A    between atoms: _328  and  _330
REMARK  134  A    between atoms: _330  and  _331
REMARK  135  A    between atoms: _333  and  _335
REMARK  136  A    between atoms: _335  and  _336
REMARK  137  A    between atoms: _335  and  _338
REMARK  138  A    between atoms: _338  and  _339
REMARK  139  A    between atoms: _349  and  _351
REMARK  140  A    between atoms: _351  and  _352
REMARK  141  A    between atoms: _351  and  _354
REMARK  142  A    between atoms: _354  and  _355
REMARK  143  A    between atoms: _355  and  _356
REMARK  144  A    between atoms: _356  and  _357
REMARK  145  A    between atoms: _357  and  _358
REMARK  146  A    between atoms: _362  and  _364
REMARK  147  A    between atoms: _364  and  _365
REMARK  148  A    between atoms: _364  and  _367
REMARK  149  A    between atoms: _367  and  _368
REMARK  150  A    between atoms: _368  and  _369
REMARK  151  A    between atoms: _372  and  _374
REMARK  152  A    between atoms: _374  and  _375
REMARK  153  A    between atoms: _374  and  _377
REMARK  154  A    between atoms: _377  and  _378
REMARK  155  A    between atoms: _383  and  _384
REMARK  156  A    between atoms: _386  and  _388
REMARK  157  A    between atoms: _388  and  _389
REMARK  158  A    between atoms: _388  and  _391
REMARK  159  A    between atoms: _391  and  _392
REMARK  160  A    between atoms: _392  and  _393
REMARK  161  A    between atoms: _396  and  _398
REMARK  162  A    between atoms: _398  and  _399
REMARK  163  A    between atoms: _398  and  _401
REMARK  164  A    between atoms: _401  and  _402
REMARK  165  A    between atoms: _407  and  _409
REMARK  166  A    between atoms: _409  and  _410
REMARK  167  A    between atoms: _409  and  _412
REMARK  168  A    between atoms: _412  and  _413
REMARK  169  A    between atoms: _416  and  _418
REMARK  170  A    between atoms: _418  and  _419
REMARK  171  A    between atoms: _422  and  _424
REMARK  172  A    between atoms: _424  and  _425
REMARK  173  A    between atoms: _424  and  _427
REMARK  174  A    between atoms: _427  and  _428
REMARK  175  A    between atoms: _428  and  _429
REMARK  176  A    between atoms: _431  and  _433
REMARK  177  A    between atoms: _433  and  _434
REMARK  178  A    between atoms: _436  and  _438
REMARK  179  A    between atoms: _438  and  _439
REMARK  180  A    between atoms: _438  and  _441
REMARK  181  A    between atoms: _441  and  _442
REMARK  182  A    between atoms: _445  and  _447
REMARK  183  A    between atoms: _447  and  _448
REMARK  184  A    between atoms: _447  and  _450
REMARK  185  A    between atoms: _450  and  _451
REMARK  186  A    between atoms: _456  and  _458
REMARK  187  A    between atoms: _458  and  _459
REMARK  188  A    between atoms: _458  and  _461
REMARK  189  A    between atoms: _461  and  _462
REMARK  190  A    between atoms: _465  and  _467
REMARK  191  A    between atoms: _467  and  _468
REMARK  192  A    between atoms: _470  and  _472
REMARK  193  A    between atoms: _472  and  _473
REMARK  194  A    between atoms: _472  and  _475
REMARK  195  A    between atoms: _475  and  _476
REMARK  196  A    between atoms: _479  and  _481
REMARK  197  A    between atoms: _481  and  _482
REMARK  198  A    between atoms: _481  and  _484
REMARK  199  A    between atoms: _484  and  _485
REMARK  200  A    between atoms: _487  and  _489
REMARK  201  A    between atoms: _489  and  _490
REMARK  202  A    between atoms: _489  and  _492
REMARK  203  A    between atoms: _492  and  _493
REMARK  204  A    between atoms: _498  and  _500
REMARK  205  A    between atoms: _500  and  _501
REMARK  206  A    between atoms: _500  and  _503
REMARK  207  A    between atoms: _503  and  _504
REMARK  208  A    between atoms: _504  and  _505
REMARK  209  A    between atoms: _510  and  _512
REMARK  210  A    between atoms: _512  and  _513
REMARK  211  A    between atoms: _512  and  _515
REMARK  212  A    between atoms: _515  and  _516
REMARK  213  A    between atoms: _522  and  _524
REMARK  214  A    between atoms: _524  and  _525
REMARK  215  A    between atoms: _528  and  _530
REMARK  216  A    between atoms: _530  and  _531
REMARK  217  A    between atoms: _530  and  _533
REMARK  218  A    between atoms: _533  and  _534
REMARK  219  A    between atoms: _537  and  _539
REMARK  220  A    between atoms: _539  and  _540
REMARK  221  A    between atoms: _539  and  _542
REMARK  222  A    between atoms: _545  and  _547
REMARK  223  A    between atoms: _547  and  _548
REMARK  224  A    between atoms: _547  and  _550
REMARK  225  A    between atoms: _550  and  _551
REMARK  226  A    between atoms: _554  and  _556
REMARK  227  A    between atoms: _566  and  _569
REMARK  228  A    between atoms: _569  and  _570
REMARK  229  A    between atoms: _570  and  _571
REMARK  230  A    between atoms: _575  and  _576
REMARK  231  A    between atoms: _579  and  _581
REMARK  232  A    between atoms: _585  and  _586
REMARK  233  A    between atoms: _591  and  _593
REMARK  234  A    between atoms: _593  and  _594
REMARK  235  A    between atoms: _593  and  _596
REMARK  236  A    between atoms: _596  and  _597
REMARK  237  A    between atoms: _597  and  _598
REMARK  238  A    between atoms: _598  and  _599
REMARK  239  A    between atoms: _608  and  _610
REMARK  240  A    between atoms: _610  and  _611
REMARK  241  A    between atoms: _610  and  _613
REMARK  242  A    between atoms: _616  and  _618
REMARK  243  A    between atoms: _618  and  _619
REMARK  244  A    between atoms: _618  and  _621
REMARK  245  A    between atoms: _621  and  _622
REMARK  246  A    between atoms: _624  and  _626
REMARK  247  A    between atoms: _626  and  _627
REMARK  248  A    between atoms: _626  and  _629
REMARK  249  A    between atoms: _629  and  _630
REMARK  250  A    between atoms: _630  and  _631
REMARK  251  A    between atoms: _631  and  _632
REMARK  252  A    between atoms: _641  and  _643
REMARK  253  A    between atoms: _643  and  _644
REMARK  254  A    between atoms: _643  and  _646
REMARK  255  A    between atoms: _646  and  _647
REMARK  256  A    between atoms: _649  and  _651
REMARK  257  A    between atoms: _651  and  _652
REMARK  258  A    between atoms: _651  and  _654
REMARK  259  A    between atoms: _654  and  _655
REMARK  260  A    between atoms: _658  and  _660
REMARK  261  A    between atoms: _660  and  _661
REMARK  262  A    between atoms: _660  and  _663
REMARK  263  A    between atoms: _663  and  _664
REMARK  264  A    between atoms: _667  and  _669
REMARK  265  A    between atoms: _669  and  _670
REMARK  266  A    between atoms: _669  and  _672
REMARK  267  A    between atoms: _672  and  _673
REMARK  268  A    between atoms: _673  and  _674
REMARK  269  A    between atoms: _679  and  _681
REMARK  270  A    between atoms: _681  and  _682
REMARK  271  A    between atoms: _681  and  _684
REMARK  272  A    between atoms: _684  and  _685
REMARK  273  A    between atoms: _685  and  _686
REMARK  274  A    between atoms: _688  and  _690
REMARK  275  A    between atoms: _690  and  _691
REMARK  276  A    between atoms: _690  and  _693
REMARK  277  A    between atoms: _693  and  _694
REMARK  278  A    between atoms: _694  and  _695
REMARK  279  A    between atoms: _695  and  _696
REMARK  280  A    between atoms: _696  and  _697
REMARK                            x       y       z     vdW  Elec       q    Type
REMARK                         _______ _______ _______ _____ _____    ______ ____
ROOT
ATOM      1  CA  GLN A   2      27.956  25.507  68.496  0.00  0.00    +0.137 C 
ENDROOT
BRANCH   1   4
ATOM      2  C   GLY A   1      26.365  27.107  67.593  0.00  0.00    +0.240 C 
ATOM      3  O   GLY A   1      25.782  27.231  68.670  0.00  0.00    -0.274 OA
ATOM      4  N   GLN A   2      27.403  26.299  67.412  0.00  0.00    -0.298 N 
ATOM      5  H   GLN A   2      27.832  26.232  66.467  0.00  0.00    +0.150 HD
BRANCH   2   6
ATOM      6  CA  GLY A   1      25.900  27.881  66.373  0.00  0.00    +0.169 C 
BRANCH   6   7
ATOM      7  N   GLY A   1      26.831  27.878  65.272  0.00  0.00    -0.236 NA
ATOM      8  H   GLY A   1      27.556  28.620  65.199  0.00  0.00    +0.142 HD
ENDBRANCH   6   7
ENDBRANCH   2   6
ENDBRANCH   1   4
BRANCH   1   9
ATOM      9  C   GLN A   2      29.452  25.417  68.341  0.00  0.00    +0.227 C 
ATOM     10  O   GLN A   2      29.955  24.402  67.860  0.00  0.00    -0.286 OA
ENDBRANCH   1   9
BRANCH   1  11
ATOM     11  CB  GLN A   2      27.324  24.094  68.568  0.00  0.00    +0.037 C 
BRANCH  11  12
ATOM     12  CG  GLN A   2      27.478  23.487  69.982  0.00  0.00    +0.087 C 
BRANCH  12  13
ATOM     13  CD  GLN A   2      27.068  22.035  70.129  0.00  0.00    +0.219 C 
ATOM     14  OE1 GLN A   2      25.991  21.719  70.671  0.00  0.00    -0.275 OA
ATOM     15  NE2 GLN A   2      27.913  21.155  69.614  0.00  0.00    -0.329 N 
ATOM     16 HE21 GLN A   2      27.692  20.139  69.650  0.00  0.00    +0.145 HD
ATOM     17 HE22 GLN A   2      28.798  21.480  69.174  0.00  0.00    +0.145 HD
ENDBRANCH  12  13
ENDBRANCH  11  12
ENDBRANCH   1  11
TORSDOF 7
REMARK  Name = ../refined-set-2016/1bxr/1bxr_pocket.pdb
REMARK  280 active torsions:
REMARK  status: ('A' for Active; 'I' for Inactive)
REMARK    1  A    between atoms: _1  and  _3
REMARK    2  A    between atoms: _3  and  _4
REMARK    3  A    between atoms: _6  and  _8
REMARK    4  A    between atoms: _8  and  _9
REMARK    5  A    between atoms: _8  and  _11
REMARK    6  A    between atoms: _11  and  _12
REMARK    7  A    between atoms: _12  and  _13
REMARK    8  A    between atoms: _18  and  _20
REMARK    9  A    between atoms: _20  and  _21
REMARK   10  A    between atoms: _20  and  _23
REMARK   11  A    between atoms: _23  and  _24
REMARK   12  A    between atoms: _30  and  _32
REMARK   13  A    between atoms: _32  and  _33
REMARK   14  A    between atoms: _32  and  _35
REMARK   15  A    between atoms: _35  and  _36
REMARK   16  A    between atoms: _36  and  _37
REMARK   17  A    between atoms: _42  and  _44
REMARK   18  A    between atoms: _44  and  _45
REMARK   19  A    between atoms: _48  and  _50
REMARK   20  A    between atoms: _50  and  _51
REMARK   21  A    between atoms: _50  and  _53
REMARK   22  A    between atoms: _53  and  _54
REMARK   23  A    between atoms: _54  and  _55
REMARK   24  A    between atoms: _58  and  _60
REMARK   25  A    between atoms: _60  and  _61
REMARK   26  A    between atoms: _60  and  _63
REMARK   27  A    between atoms: _63  and  _64
REMARK   28  A    between atoms: _65  and  _66
REMARK   29  A    between atoms: _75  and  _77
REMARK   30  A    between atoms: _77  and  _78
REMARK   31  A    between atoms: _77  and  _80
REMARK   32  A    between atoms: _80  and  _81
REMARK   33  A    between atoms: _84  and  _86
REMARK   34  A    between atoms: _86  and  _87
REMARK   35  A    between atoms: _90  and  _92
REMARK   36  A    between atoms: _92  and  _93
REMARK   37  A    between atoms: _92  and  _95
REMARK   38  A    between atoms: _95  and  _96
REMARK   39  A    between atoms: _96  and  _97
REMARK   40  A    between atoms: _97  and  _98
REMARK   41  A    between atoms: _107  and  _109
REMARK   42  A    between atoms: _109  and  _110
REMARK   43  A    between atoms: _109  and  _112
REMARK   44  A    between atoms: _112  and  _113
REMARK   45  A    between atoms: _116  and  _117
REMARK   46  A    between atoms: _122  and  _124
REMARK   47  A    between atoms: _124  and  _125
REMARK   48  A    between atoms: _124  and  _127
REMARK   49  A    between atoms: _129  and  _131
REMARK   50  A    between atoms: _131  and  _132
REMARK   51  A    between atoms: _131  and  _134
REMARK   52  A    between atoms: _134  and  _135
REMARK   53  A    between atoms: _138  and  _140
REMARK   54  A    between atoms: _140  and  _141
REMARK   55  A    between atoms: _140  and  _143
REMARK   56  A    between atoms: _143  and  _144
REMARK   57  A    between atoms: _147  and  _149
REMARK   58  A    between atoms: _149  and  _150
REMARK   59  A    between atoms: _149  and  _152
REMARK   60  A    between atoms: _152  and  _153
REMARK   61  A    between atoms: _153  and  _154
REMARK   62  A    between atoms: _154  and  _155
REMARK   63  A    between atoms: _165  and  _166
REMARK   64  A    between atoms: _171  and  _173
REMARK   65  A    between atoms: _173  and  _174
REMARK   66  A    between atoms: _173  and  _176
REMARK   67  A    between atoms: _176  and  _177
REMARK   68  A    between atoms: _179  and  _181
REMARK   69  A    between atoms: _181  and  _182
REMARK   70  A    between atoms: _181  and  _184
REMARK   71  A    between atoms: _184  and  _185
REMARK   72  A    between atoms: _191  and  _193
REMARK   73  A    between atoms: _193  and  _194
REMARK   74  A    between atoms: _193  and  _196
REMARK   75  A    between atoms: _196  and  _197
REMARK   76  A    between atoms: _200  and  _202
REMARK   77  A    between atoms: _202  and  _203
REMARK   78  A    between atoms: _202  and  _205
REMARK   79  A    between atoms: _205  and  _206
REMARK   80  A    between atoms: _206  and  _207
REMARK   81  A    between atoms: _209  and  _211
REMARK   82  A    between atoms: _211  and  _212
REMARK   83  A    between atoms: _214  and  _216
REMARK   84  A    between atoms: _216  and  _217
REMARK   85  A    between atoms: _219  and  _221
REMARK   86  A    between atoms: _221  and  _222
REMARK   87  A    between atoms: _221  and  _224
REMARK   88  A    between atoms: _224  and  _225
REMARK   89  A    between atoms: _227  and  _229
REMARK   90  A    between atoms: _229  and  _230
REMARK   91  A    between atoms: _232  and  _234
REMARK   92  A    between atoms: _234  and  _235
REMARK   93  A    between atoms: _237  and  _239
REMARK   94  A    between atoms: _239  and  _240
REMARK   95  A    between atoms: _242  and  _244
REMARK   96  A    between atoms: _244  and  _245
REMARK   97  A    between atoms: _244  and  _247
REMARK   98  A    between atoms: _247  and  _248
REMARK   99  A    between atoms: _251  and  _253
REMARK  100  A    between atoms: _253  and  _254
REMARK  101  A    between atoms: _253  and  _256
REMARK  102  A    between atoms: _256  and  _257
REMARK  103  A    between atoms: _262  and  _263
REMARK  104  A    between atoms: _265  and  _267
REMARK  105  A    between atoms: _267  and  _268
REMARK  106  A    between atoms: _267  and  _270
REMARK  107  A    between atoms: _270  and  _271
REMARK  108  A    between atoms: _274  and  _276
REMARK  109  A    between atoms: _276  and  _277
REMARK  110  A    between atoms: _276  and  _279
REMARK  111  A    between atoms: _279  and  _280
REMARK  112  A    between atoms: _283  and  _285
REMARK  113  A    between atoms: _285  and  _286
REMARK  114  A    between atoms: _285  and  _288
REMARK  115  A    between atoms: _288  and  _289
REMARK  116  A    between atoms: _292  and  _294
REMARK  117  A    between atoms: _294  and  _295
REMARK  118  A    between atoms: _294  and  _297
REMARK  119  A    between atoms: _297  and  _298
REMARK  120  A    between atoms: _298  and  _299
REMARK  121  A    between atoms: _302  and  _304
REMARK  122  A    between atoms: _304  and  _305
REMARK  123  A    between atoms: _304  and  _307
REMARK  124  A    between atoms: _307  and  _308
REMARK  125  A    between atoms: _310  and  _312
REMARK  126  A    between atoms: _312  and  _313
REMARK  127  A    between atoms: _312  and  _315
REMARK  128  A    between atoms: _315  and  _316
REMARK  129  A    between atoms: _319  and  _321
REMARK  130  A    between atoms: _321  and  _322
REMARK  131  A    between atoms: _321  and  _324
REMARK  132  A    between atoms: _324  and  _325
REMARK  133  A    between atoms: _328  and  _330
REMARK  134  A    between atoms: _330  and  _331
REMARK  135  A    between atoms: _333  and  _335
REMARK  136  A    between atoms: _335  and  _336
REMARK  137  A    between atoms: _335  and  _338
REMARK  138  A    between atoms: _338  and  _339
REMARK  139  A    between atoms: _349  and  _351
REMARK  140  A    between atoms: _351  and  _352
REMARK  141  A    between atoms: _351  and  _354
REMARK  142  A    between atoms: _354  and  _355
REMARK  143  A    between atoms: _355  and  _356
REMARK  144  A    between atoms: _356  and  _357
REMARK  145  A    between atoms: _357  and  _358
REMARK  146  A    between atoms: _362  and  _364
REMARK  147  A    between atoms: _364  and  _365
REMARK  148  A    between atoms: _364  and  _367
REMARK  149  A    between atoms: _367  and  _368
REMARK  150  A    between atoms: _368  and  _369
REMARK  151  A    between atoms: _372  and  _374
REMARK  152  A    between atoms: _374  and  _375
REMARK  153  A    between atoms: _374  and  _377
REMARK  154  A    between atoms: _377  and  _378
REMARK  155  A    between atoms: _383  and  _384
REMARK  156  A    between atoms: _386  and  _388
REMARK  157  A    between atoms: _388  and  _389
REMARK  158  A    between atoms: _388  and  _391
REMARK  159  A    between atoms: _391  and  _392
REMARK  160  A    between atoms: _392  and  _393
REMARK  161  A    between atoms: _396  and  _398
REMARK  162  A    between atoms: _398  and  _399
REMARK  163  A    between atoms: _398  and  _401
REMARK  164  A    between atoms: _401  and  _402
REMARK  165  A    between atoms: _407  and  _409
REMARK  166  A    between atoms: _409  and  _410
REMARK  167  A    between atoms: _409  and  _412
REMARK  168  A    between atoms: _412  and  _413
REMARK  169  A    between atoms: _416  and  _418
REMARK  170  A    between atoms: _418  and  _419
REMARK  171  A    between atoms: _422  and  _424
REMARK  172  A    between atoms: _424  and  _425
REMARK  173  A    between atoms: _424  and  _427
REMARK  174  A    between atoms: _427  and  _428
REMARK  175  A    between atoms: _428  and  _429
REMARK  176  A    between atoms: _431  and  _433
REMARK  177  A    between atoms: _433  and  _434
REMARK  178  A    between atoms: _436  and  _438
REMARK  179  A    between atoms: _438  and  _439
REMARK  180  A    between atoms: _438  and  _441
REMARK  181  A    between atoms: _441  and  _442
REMARK  182  A    between atoms: _445  and  _447
REMARK  183  A    between atoms: _447  and  _448
REMARK  184  A    between atoms: _447  and  _450
REMARK  185  A    between atoms: _450  and  _451
REMARK  186  A    between atoms: _456  and  _458
REMARK  187  A    between atoms: _458  and  _459
REMARK  188  A    between atoms: _458  and  _461
REMARK  189  A    between atoms: _461  and  _462
REMARK  190  A    between atoms: _465  and  _467
REMARK  191  A    between atoms: _467  and  _468
REMARK  192  A    between atoms: _470  and  _472
REMARK  193  A    between atoms: _472  and  _473
REMARK  194  A    between atoms: _472  and  _475
REMARK  195  A    between atoms: _475  and  _476
REMARK  196  A    between atoms: _479  and  _481
REMARK  197  A    between atoms: _481  and  _482
REMARK  198  A    between atoms: _481  and  _484
REMARK  199  A    between atoms: _484  and  _485
REMARK  200  A    between atoms: _487  and  _489
REMARK  201  A    between atoms: _489  and  _490
REMARK  202  A    between atoms: _489  and  _492
REMARK  203  A    between atoms: _492  and  _493
REMARK  204  A    between atoms: _498  and  _500
REMARK  205  A    between atoms: _500  and  _501
REMARK  206  A    between atoms: _500  and  _503
REMARK  207  A    between atoms: _503  and  _504
REMARK  208  A    between atoms: _504  and  _505
REMARK  209  A    between atoms: _510  and  _512
REMARK  210  A    between atoms: _512  and  _513
REMARK  211  A    between atoms: _512  and  _515
REMARK  212  A    between atoms: _515  and  _516
REMARK  213  A    between atoms: _522  and  _524
REMARK  214  A    between atoms: _524  and  _525
REMARK  215  A    between atoms: _528  and  _530
REMARK  216  A    between atoms: _530  and  _531
REMARK  217  A    between atoms: _530  and  _533
REMARK  218  A    between atoms: _533  and  _534
REMARK  219  A    between atoms: _537  and  _539
REMARK  220  A    between atoms: _539  and  _540
REMARK  221  A    between atoms: _539  and  _542
REMARK  222  A    between atoms: _545  and  _547
REMARK  223  A    between atoms: _547  and  _548
REMARK  224  A    between atoms: _547  and  _550
REMARK  225  A    between atoms: _550  and  _551
REMARK  226  A    between atoms: _554  and  _556
REMARK  227  A    between atoms: _566  and  _569
REMARK  228  A    between atoms: _569  and  _570
REMARK  229  A    between atoms: _570  and  _571
REMARK  230  A    between atoms: _575  and  _576
REMARK  231  A    between atoms: _579  and  _581
REMARK  232  A    between atoms: _585  and  _586
REMARK  233  A    between atoms: _591  and  _593
REMARK  234  A    between atoms: _593  and  _594
REMARK  235  A    between atoms: _593  and  _596
REMARK  236  A    between atoms: _596  and  _597
REMARK  237  A    between atoms: _597  and  _598
REMARK  238  A    between atoms: _598  and  _599
REMARK  239  A    between atoms: _608  and  _610
REMARK  240  A    between atoms: _610  and  _611
REMARK  241  A    between atoms: _610  and  _613
REMARK  242  A    between atoms: _616  and  _618
REMARK  243  A    between atoms: _618  and  _619
REMARK  244  A    between atoms: _618  and  _621
REMARK  245  A    between atoms: _621  and  _622
REMARK  246  A    between atoms: _624  and  _626
REMARK  247  A    between atoms: _626  and  _627
REMARK  248  A    between atoms: _626  and  _629
REMARK  249  A    between atoms: _629  and  _630
REMARK  250  A    between atoms: _630  and  _631
REMARK  251  A    between atoms: _631  and  _632
REMARK  252  A    between atoms: _641  and  _643
REMARK  253  A    between atoms: _643  and  _644
REMARK  254  A    between atoms: _643  and  _646
REMARK  255  A    between atoms: _646  and  _647
REMARK  256  A    between atoms: _649  and  _651
REMARK  257  A    between atoms: _651  and  _652
REMARK  258  A    between atoms: _651  and  _654
REMARK  259  A    between atoms: _654  and  _655
REMARK  260  A    between atoms: _658  and  _660
REMARK  261  A    between atoms: _660  and  _661
REMARK  262  A    between atoms: _660  and  _663
REMARK  263  A    between atoms: _663  and  _664
REMARK  264  A    between atoms: _667  and  _669
REMARK  265  A    between atoms: _669  and  _670
REMARK  266  A    between atoms: _669  and  _672
REMARK  267  A    between atoms: _672  and  _673
REMARK  268  A    between atoms: _673  and  _674
REMARK  269  A    between atoms: _679  and  _681
REMARK  270  A    between atoms: _681  and  _682
REMARK  271  A    between atoms: _681  and  _684
REMARK  272  A    between atoms: _684  and  _685
REMARK  273  A    between atoms: _685  and  _686
REMARK  274  A    between atoms: _688  and  _690
REMARK  275  A    between atoms: _690  and  _691
REMARK  276  A    between atoms: _690  and  _693
REMARK  277  A    between atoms: _693  and  _694
REMARK  278  A    between atoms: _694  and  _695
REMARK  279  A    between atoms: _695  and  _696
REMARK  280  A    between atoms: _696  and  _697
REMARK                            x       y       z     vdW  Elec       q    Type
REMARK                         _______ _______ _______ _____ _____    ______ ____
ROOT
ATOM      1  CB  PHE A   1      31.589  23.910  74.403  0.00  0.00    +0.051 C 
ENDROOT
BRANCH   1   2
ATOM      2  CG  PHE A   1      30.276  24.593  74.204  0.00  0.00    -0.020 A 
ATOM      3  CD2 PHE A   1      29.572  25.100  75.297  0.00  0.00    -0.004 A 
ATOM      4  CE2 PHE A   1      28.347  25.749  75.134  0.00  0.00    -0.000 A 
ATOM      5  CZ  PHE A   1      27.833  25.919  73.847  0.00  0.00    -0.000 A 
ATOM      6  CE1 PHE A   1      28.545  25.447  72.743  0.00  0.00    -0.000 A 
ATOM      7  CD1 PHE A   1      29.767  24.795  72.925  0.00  0.00    -0.004 A 
ENDBRANCH   1   2
BRANCH   1   8
ATOM      8  CA  PHE A   1      32.513  24.966  74.896  0.00  0.00    +0.137 C 
BRANCH   8   9
ATOM      9  N   PHE A   1      32.435  26.135  74.058  0.00  0.00    -0.239 NA
ATOM     10  H   PHE A   1      32.145  26.043  73.064  0.00  0.00    +0.142 HD
ENDBRANCH   8   9
BRANCH   8  11
ATOM     11  C   PHE A   1      33.875  24.442  75.195  0.00  0.00    +0.224 C 
ATOM     12  O   PHE A   1      34.063  23.926  76.303  0.00  0.00    -0.287 OA
ENDBRANCH   8  11
ENDBRANCH   1   8
TORSDOF 4
REMARK  Name = ../refined-set-2016/1bxr/1bxr_pocket.pdb
REMARK  280 active torsions:
REMARK  status: ('A' for Active; 'I' for Inactive)
REMARK    1  A    between atoms: _1  and  _3
REMARK    2  A    between atoms: _3  and  _4
REMARK    3  A    between atoms: _6  and  _8
REMARK    4  A    between atoms: _8  and  _9
REMARK    5  A    between atoms: _8  and  _11
REMARK    6  A    between atoms: _11  and  _12
REMARK    7  A    between atoms: _12  and  _13
REMARK    8  A    between atoms: _18  and  _20
REMARK    9  A    between atoms: _20  and  _21
REMARK   10  A    between atoms: _20  and  _23
REMARK   11  A    between atoms: _23  and  _24
REMARK   12  A    between atoms: _30  and  _32
REMARK   13  A    between atoms: _32  and  _33
REMARK   14  A    between atoms: _32  and  _35
REMARK   15  A    between atoms: _35  and  _36
REMARK   16  A    between atoms: _36  and  _37
REMARK   17  A    between atoms: _42  and  _44
REMARK   18  A    between atoms: _44  and  _45
REMARK   19  A    between atoms: _48  and  _50
REMARK   20  A    between atoms: _50  and  _51
REMARK   21  A    between atoms: _50  and  _53
REMARK   22  A    between atoms: _53  and  _54
REMARK   23  A    between atoms: _54  and  _55
REMARK   24  A    between atoms: _58  and  _60
REMARK   25  A    between atoms: _60  and  _61
REMARK   26  A    between atoms: _60  and  _63
REMARK   27  A    between atoms: _63  and  _64
REMARK   28  A    between atoms: _65  and  _66
REMARK   29  A    between atoms: _75  and  _77
REMARK   30  A    between atoms: _77  and  _78
REMARK   31  A    between atoms: _77  and  _80
REMARK   32  A    between atoms: _80  and  _81
REMARK   33  A    between atoms: _84  and  _86
REMARK   34  A    between atoms: _86  and  _87
REMARK   35  A    between atoms: _90  and  _92
REMARK   36  A    between atoms: _92  and  _93
REMARK   37  A    between atoms: _92  and  _95
REMARK   38  A    between atoms: _95  and  _96
REMARK   39  A    between atoms: _96  and  _97
REMARK   40  A    between atoms: _97  and  _98
REMARK   41  A    between atoms: _107  and  _109
REMARK   42  A    between atoms: _109  and  _110
REMARK   43  A    between atoms: _109  and  _112
REMARK   44  A    between atoms: _112  and  _113
REMARK   45  A    between atoms: _116  and  _117
REMARK   46  A    between atoms: _122  and  _124
REMARK   47  A    between atoms: _124  and  _125
REMARK   48  A    between atoms: _124  and  _127
REMARK   49  A    between atoms: _129  and  _131
REMARK   50  A    between atoms: _131  and  _132
REMARK   51  A    between atoms: _131  and  _134
REMARK   52  A    between atoms: _134  and  _135
REMARK   53  A    between atoms: _138  and  _140
REMARK   54  A    between atoms: _140  and  _141
REMARK   55  A    between atoms: _140  and  _143
REMARK   56  A    between atoms: _143  and  _144
REMARK   57  A    between atoms: _147  and  _149
REMARK   58  A    between atoms: _149  and  _150
REMARK   59  A    between atoms: _149  and  _152
REMARK   60  A    between atoms: _152  and  _153
REMARK   61  A    between atoms: _153  and  _154
REMARK   62  A    between atoms: _154  and  _155
REMARK   63  A    between atoms: _165  and  _166
REMARK   64  A    between atoms: _171  and  _173
REMARK   65  A    between atoms: _173  and  _174
REMARK   66  A    between atoms: _173  and  _176
REMARK   67  A    between atoms: _176  and  _177
REMARK   68  A    between atoms: _179  and  _181
REMARK   69  A    between atoms: _181  and  _182
REMARK   70  A    between atoms: _181  and  _184
REMARK   71  A    between atoms: _184  and  _185
REMARK   72  A    between atoms: _191  and  _193
REMARK   73  A    between atoms: _193  and  _194
REMARK   74  A    between atoms: _193  and  _196
REMARK   75  A    between atoms: _196  and  _197
REMARK   76  A    between atoms: _200  and  _202
REMARK   77  A    between atoms: _202  and  _203
REMARK   78  A    between atoms: _202  and  _205
REMARK   79  A    between atoms: _205  and  _206
REMARK   80  A    between atoms: _206  and  _207
REMARK   81  A    between atoms: _209  and  _211
REMARK   82  A    between atoms: _211  and  _212
REMARK   83  A    between atoms: _214  and  _216
REMARK   84  A    between atoms: _216  and  _217
REMARK   85  A    between atoms: _219  and  _221
REMARK   86  A    between atoms: _221  and  _222
REMARK   87  A    between atoms: _221  and  _224
REMARK   88  A    between atoms: _224  and  _225
REMARK   89  A    between atoms: _227  and  _229
REMARK   90  A    between atoms: _229  and  _230
REMARK   91  A    between atoms: _232  and  _234
REMARK   92  A    between atoms: _234  and  _235
REMARK   93  A    between atoms: _237  and  _239
REMARK   94  A    between atoms: _239  and  _240
REMARK   95  A    between atoms: _242  and  _244
REMARK   96  A    between atoms: _244  and  _245
REMARK   97  A    between atoms: _244  and  _247
REMARK   98  A    between atoms: _247  and  _248
REMARK   99  A    between atoms: _251  and  _253
REMARK  100  A    between atoms: _253  and  _254
REMARK  101  A    between atoms: _253  and  _256
REMARK  102  A    between atoms: _256  and  _257
REMARK  103  A    between atoms: _262  and  _263
REMARK  104  A    between atoms: _265  and  _267
REMARK  105  A    between atoms: _267  and  _268
REMARK  106  A    between atoms: _267  and  _270
REMARK  107  A    between atoms: _270  and  _271
REMARK  108  A    between atoms: _274  and  _276
REMARK  109  A    between atoms: _276  and  _277
REMARK  110  A    between atoms: _276  and  _279
REMARK  111  A    between atoms: _279  and  _280
REMARK  112  A    between atoms: _283  and  _285
REMARK  113  A    between atoms: _285  and  _286
REMARK  114  A    between atoms: _285  and  _288
REMARK  115  A    between atoms: _288  and  _289
REMARK  116  A    between atoms: _292  and  _294
REMARK  117  A    between atoms: _294  and  _295
REMARK  118  A    between atoms: _294  and  _297
REMARK  119  A    between atoms: _297  and  _298
REMARK  120  A    between atoms: _298  and  _299
REMARK  121  A    between atoms: _302  and  _304
REMARK  122  A    between atoms: _304  and  _305
REMARK  123  A    between atoms: _304  and  _307
REMARK  124  A    between atoms: _307  and  _308
REMARK  125  A    between atoms: _310  and  _312
REMARK  126  A    between atoms: _312  and  _313
REMARK  127  A    between atoms: _312  and  _315
REMARK  128  A    between atoms: _315  and  _316
REMARK  129  A    between atoms: _319  and  _321
REMARK  130  A    between atoms: _321  and  _322
REMARK  131  A    between atoms: _321  and  _324
REMARK  132  A    between atoms: _324  and  _325
REMARK  133  A    between atoms: _328  and  _330
REMARK  134  A    between atoms: _330  and  _331
REMARK  135  A    between atoms: _333  and  _335
REMARK  136  A    between atoms: _335  and  _336
REMARK  137  A    between atoms: _335  and  _338
REMARK  138  A    between atoms: _338  and  _339
REMARK  139  A    between atoms: _349  and  _351
REMARK  140  A    between atoms: _351  and  _352
REMARK  141  A    between atoms: _351  and  _354
REMARK  142  A    between atoms: _354  and  _355
REMARK  143  A    between atoms: _355  and  _356
REMARK  144  A    between atoms: _356  and  _357
REMARK  145  A    between atoms: _357  and  _358
REMARK  146  A    between atoms: _362  and  _364
REMARK  147  A    between atoms: _364  and  _365
REMARK  148  A    between atoms: _364  and  _367
REMARK  149  A    between atoms: _367  and  _368
REMARK  150  A    between atoms: _368  and  _369
REMARK  151  A    between atoms: _372  and  _374
REMARK  152  A    between atoms: _374  and  _375
REMARK  153  A    between atoms: _374  and  _377
REMARK  154  A    between atoms: _377  and  _378
REMARK  155  A    between atoms: _383  and  _384
REMARK  156  A    between atoms: _386  and  _388
REMARK  157  A    between atoms: _388  and  _389
REMARK  158  A    between atoms: _388  and  _391
REMARK  159  A    between atoms: _391  and  _392
REMARK  160  A    between atoms: _392  and  _393
REMARK  161  A    between atoms: _396  and  _398
REMARK  162  A    between atoms: _398  and  _399
REMARK  163  A    between atoms: _398  and  _401
REMARK  164  A    between atoms: _401  and  _402
REMARK  165  A    between atoms: _407  and  _409
REMARK  166  A    between atoms: _409  and  _410
REMARK  167  A    between atoms: _409  and  _412
REMARK  168  A    between atoms: _412  and  _413
REMARK  169  A    between atoms: _416  and  _418
REMARK  170  A    between atoms: _418  and  _419
REMARK  171  A    between atoms: _422  and  _424
REMARK  172  A    between atoms: _424  and  _425
REMARK  173  A    between atoms: _424  and  _427
REMARK  174  A    between atoms: _427  and  _428
REMARK  175  A    between atoms: _428  and  _429
REMARK  176  A    between atoms: _431  and  _433
REMARK  177  A    between atoms: _433  and  _434
REMARK  178  A    between atoms: _436  and  _438
REMARK  179  A    between atoms: _438  and  _439
REMARK  180  A    between atoms: _438  and  _441
REMARK  181  A    between atoms: _441  and  _442
REMARK  182  A    between atoms: _445  and  _447
REMARK  183  A    between atoms: _447  and  _448
REMARK  184  A    between atoms: _447  and  _450
REMARK  185  A    between atoms: _450  and  _451
REMARK  186  A    between atoms: _456  and  _458
REMARK  187  A    between atoms: _458  and  _459
REMARK  188  A    between atoms: _458  and  _461
REMARK  189  A    between atoms: _461  and  _462
REMARK  190  A    between atoms: _465  and  _467
REMARK  191  A    between atoms: _467  and  _468
REMARK  192  A    between atoms: _470  and  _472
REMARK  193  A    between atoms: _472  and  _473
REMARK  194  A    between atoms: _472  and  _475
REMARK  195  A    between atoms: _475  and  _476
REMARK  196  A    between atoms: _479  and  _481
REMARK  197  A    between atoms: _481  and  _482
REMARK  198  A    between atoms: _481  and  _484
REMARK  199  A    between atoms: _484  and  _485
REMARK  200  A    between atoms: _487  and  _489
REMARK  201  A    between atoms: _489  and  _490
REMARK  202  A    between atoms: _489  and  _492
REMARK  203  A    between atoms: _492  and  _493
REMARK  204  A    between atoms: _498  and  _500
REMARK  205  A    between atoms: _500  and  _501
REMARK  206  A    between atoms: _500  and  _503
REMARK  207  A    between atoms: _503  and  _504
REMARK  208  A    between atoms: _504  and  _505
REMARK  209  A    between atoms: _510  and  _512
REMARK  210  A    between atoms: _512  and  _513
REMARK  211  A    between atoms: _512  and  _515
REMARK  212  A    between atoms: _515  and  _516
REMARK  213  A    between atoms: _522  and  _524
REMARK  214  A    between atoms: _524  and  _525
REMARK  215  A    between atoms: _528  and  _530
REMARK  216  A    between atoms: _530  and  _531
REMARK  217  A    between atoms: _530  and  _533
REMARK  218  A    between atoms: _533  and  _534
REMARK  219  A    between atoms: _537  and  _539
REMARK  220  A    between atoms: _539  and  _540
REMARK  221  A    between atoms: _539  and  _542
REMARK  222  A    between atoms: _545  and  _547
REMARK  223  A    between atoms: _547  and  _548
REMARK  224  A    between atoms: _547  and  _550
REMARK  225  A    between atoms: _550  and  _551
REMARK  226  A    between atoms: _554  and  _556
REMARK  227  A    between atoms: _566  and  _569
REMARK  228  A    between atoms: _569  and  _570
REMARK  229  A    between atoms: _570  and  _571
REMARK  230  A    between atoms: _575  and  _576
REMARK  231  A    between atoms: _579  and  _581
REMARK  232  A    between atoms: _585  and  _586
REMARK  233  A    between atoms: _591  and  _593
REMARK  234  A    between atoms: _593  and  _594
REMARK  235  A    between atoms: _593  and  _596
REMARK  236  A    between atoms: _596  and  _597
REMARK  237  A    between atoms: _597  and  _598
REMARK  238  A    between atoms: _598  and  _599
REMARK  239  A    between atoms: _608  and  _610
REMARK  240  A    between atoms: _610  and  _611
REMARK  241  A    between atoms: _610  and  _613
REMARK  242  A    between atoms: _616  and  _618
REMARK  243  A    between atoms: _618  and  _619
REMARK  244  A    between atoms: _618  and  _621
REMARK  245  A    between atoms: _621  and  _622
REMARK  246  A    between atoms: _624  and  _626
REMARK  247  A    between atoms: _626  and  _627
REMARK  248  A    between atoms: _626  and  _629
REMARK  249  A    between atoms: _629  and  _630
REMARK  250  A    between atoms: _630  and  _631
REMARK  251  A    between atoms: _631  and  _632
REMARK  252  A    between atoms: _641  and  _643
REMARK  253  A    between atoms: _643  and  _644
REMARK  254  A    between atoms: _643  and  _646
REMARK  255  A    between atoms: _646  and  _647
REMARK  256  A    between atoms: _649  and  _651
REMARK  257  A    between atoms: _651  and  _652
REMARK  258  A    between atoms: _651  and  _654
REMARK  259  A    between atoms: _654  and  _655
REMARK  260  A    between atoms: _658  and  _660
REMARK  261  A    between atoms: _660  and  _661
REMARK  262  A    between atoms: _660  and  _663
REMARK  263  A    between atoms: _663  and  _664
REMARK  264  A    between atoms: _667  and  _669
REMARK  265  A    between atoms: _669  and  _670
REMARK  266  A    between atoms: _669  and  _672
REMARK  267  A    between atoms: _672  and  _673
REMARK  268  A    between atoms: _673  and  _674
REMARK  269  A    between atoms: _679  and  _681
REMARK  270  A    between atoms: _681  and  _682
REMARK  271  A    between atoms: _681  and  _684
REMARK  272  A    between atoms: _684  and  _685
REMARK  273  A    between atoms: _685  and  _686
REMARK  274  A    between atoms: _688  and  _690
REMARK  275  A    between atoms: _690  and  _691
REMARK  276  A    between atoms: _690  and  _693
REMARK  277  A    between atoms: _693  and  _694
REMARK  278  A    between atoms: _694  and  _695
REMARK  279  A    between atoms: _695  and  _696
REMARK  280  A    between atoms: _696  and  _697
REMARK                            x       y       z     vdW  Elec       q    Type
REMARK                         _______ _______ _______ _____ _____    ______ ____
ROOT
ATOM      1  CB  GLN A   1      22.693  21.239  71.676  0.00  0.00    +0.035 C 
ENDROOT
BRANCH   1   2
ATOM      2  CA  GLN A   1      23.379  20.713  72.937  0.00  0.00    +0.134 C 
BRANCH   2   3
ATOM      3  N   GLN A   1      24.472  21.599  73.247  0.00  0.00    -0.239 NA
ATOM      4  H   GLN A   1      24.731  22.322  72.546  0.00  0.00    +0.142 HD
ENDBRANCH   2   3
BRANCH   2   5
ATOM      5  C   GLN A   1      23.821  19.255  72.769  0.00  0.00    +0.224 C 
ATOM      6  O   GLN A   1      23.112  18.308  73.133  0.00  0.00    -0.287 OA
ENDBRANCH   2   5
ENDBRANCH   1   2
BRANCH   1   7
ATOM      7  CG  GLN A   1      21.197  20.911  71.559  0.00  0.00    +0.087 C 
BRANCH   7   8
ATOM      8  CD  GLN A   1      20.356  21.422  72.721  0.00  0.00    +0.219 C 
ATOM      9  NE2 GLN A   1      19.578  20.535  73.335  0.00  0.00    -0.329 N 
ATOM     10 HE21 GLN A   1      19.002  20.825  74.151  0.00  0.00    +0.145 HD
ATOM     11 HE22 GLN A   1      19.546  19.551  72.999  0.00  0.00    +0.145 HD
ATOM     12  OE1 GLN A   1      20.413  22.598  73.100  0.00  0.00    -0.275 OA
ENDBRANCH   7   8
ENDBRANCH   1   7
TORSDOF 5
REMARK  Name = ../refined-set-2016/1bxr/1bxr_pocket.pdb
REMARK  280 active torsions:
REMARK  status: ('A' for Active; 'I' for Inactive)
REMARK    1  A    between atoms: _1  and  _3
REMARK    2  A    between atoms: _3  and  _4
REMARK    3  A    between atoms: _6  and  _8
REMARK    4  A    between atoms: _8  and  _9
REMARK    5  A    between atoms: _8  and  _11
REMARK    6  A    between atoms: _11  and  _12
REMARK    7  A    between atoms: _12  and  _13
REMARK    8  A    between atoms: _18  and  _20
REMARK    9  A    between atoms: _20  and  _21
REMARK   10  A    between atoms: _20  and  _23
REMARK   11  A    between atoms: _23  and  _24
REMARK   12  A    between atoms: _30  and  _32
REMARK   13  A    between atoms: _32  and  _33
REMARK   14  A    between atoms: _32  and  _35
REMARK   15  A    between atoms: _35  and  _36
REMARK   16  A    between atoms: _36  and  _37
REMARK   17  A    between atoms: _42  and  _44
REMARK   18  A    between atoms: _44  and  _45
REMARK   19  A    between atoms: _48  and  _50
REMARK   20  A    between atoms: _50  and  _51
REMARK   21  A    between atoms: _50  and  _53
REMARK   22  A    between atoms: _53  and  _54
REMARK   23  A    between atoms: _54  and  _55
REMARK   24  A    between atoms: _58  and  _60
REMARK   25  A    between atoms: _60  and  _61
REMARK   26  A    between atoms: _60  and  _63
REMARK   27  A    between atoms: _63  and  _64
REMARK   28  A    between atoms: _65  and  _66
REMARK   29  A    between atoms: _75  and  _77
REMARK   30  A    between atoms: _77  and  _78
REMARK   31  A    between atoms: _77  and  _80
REMARK   32  A    between atoms: _80  and  _81
REMARK   33  A    between atoms: _84  and  _86
REMARK   34  A    between atoms: _86  and  _87
REMARK   35  A    between atoms: _90  and  _92
REMARK   36  A    between atoms: _92  and  _93
REMARK   37  A    between atoms: _92  and  _95
REMARK   38  A    between atoms: _95  and  _96
REMARK   39  A    between atoms: _96  and  _97
REMARK   40  A    between atoms: _97  and  _98
REMARK   41  A    between atoms: _107  and  _109
REMARK   42  A    between atoms: _109  and  _110
REMARK   43  A    between atoms: _109  and  _112
REMARK   44  A    between atoms: _112  and  _113
REMARK   45  A    between atoms: _116  and  _117
REMARK   46  A    between atoms: _122  and  _124
REMARK   47  A    between atoms: _124  and  _125
REMARK   48  A    between atoms: _124  and  _127
REMARK   49  A    between atoms: _129  and  _131
REMARK   50  A    between atoms: _131  and  _132
REMARK   51  A    between atoms: _131  and  _134
REMARK   52  A    between atoms: _134  and  _135
REMARK   53  A    between atoms: _138  and  _140
REMARK   54  A    between atoms: _140  and  _141
REMARK   55  A    between atoms: _140  and  _143
REMARK   56  A    between atoms: _143  and  _144
REMARK   57  A    between atoms: _147  and  _149
REMARK   58  A    between atoms: _149  and  _150
REMARK   59  A    between atoms: _149  and  _152
REMARK   60  A    between atoms: _152  and  _153
REMARK   61  A    between atoms: _153  and  _154
REMARK   62  A    between atoms: _154  and  _155
REMARK   63  A    between atoms: _165  and  _166
REMARK   64  A    between atoms: _171  and  _173
REMARK   65  A    between atoms: _173  and  _174
REMARK   66  A    between atoms: _173  and  _176
REMARK   67  A    between atoms: _176  and  _177
REMARK   68  A    between atoms: _179  and  _181
REMARK   69  A    between atoms: _181  and  _182
REMARK   70  A    between atoms: _181  and  _184
REMARK   71  A    between atoms: _184  and  _185
REMARK   72  A    between atoms: _191  and  _193
REMARK   73  A    between atoms: _193  and  _194
REMARK   74  A    between atoms: _193  and  _196
REMARK   75  A    between atoms: _196  and  _197
REMARK   76  A    between atoms: _200  and  _202
REMARK   77  A    between atoms: _202  and  _203
REMARK   78  A    between atoms: _202  and  _205
REMARK   79  A    between atoms: _205  and  _206
REMARK   80  A    between atoms: _206  and  _207
REMARK   81  A    between atoms: _209  and  _211
REMARK   82  A    between atoms: _211  and  _212
REMARK   83  A    between atoms: _214  and  _216
REMARK   84  A    between atoms: _216  and  _217
REMARK   85  A    between atoms: _219  and  _221
REMARK   86  A    between atoms: _221  and  _222
REMARK   87  A    between atoms: _221  and  _224
REMARK   88  A    between atoms: _224  and  _225
REMARK   89  A    between atoms: _227  and  _229
REMARK   90  A    between atoms: _229  and  _230
REMARK   91  A    between atoms: _232  and  _234
REMARK   92  A    between atoms: _234  and  _235
REMARK   93  A    between atoms: _237  and  _239
REMARK   94  A    between atoms: _239  and  _240
REMARK   95  A    between atoms: _242  and  _244
REMARK   96  A    between atoms: _244  and  _245
REMARK   97  A    between atoms: _244  and  _247
REMARK   98  A    between atoms: _247  and  _248
REMARK   99  A    between atoms: _251  and  _253
REMARK  100  A    between atoms: _253  and  _254
REMARK  101  A    between atoms: _253  and  _256
REMARK  102  A    between atoms: _256  and  _257
REMARK  103  A    between atoms: _262  and  _263
REMARK  104  A    between atoms: _265  and  _267
REMARK  105  A    between atoms: _267  and  _268
REMARK  106  A    between atoms: _267  and  _270
REMARK  107  A    between atoms: _270  and  _271
REMARK  108  A    between atoms: _274  and  _276
REMARK  109  A    between atoms: _276  and  _277
REMARK  110  A    between atoms: _276  and  _279
REMARK  111  A    between atoms: _279  and  _280
REMARK  112  A    between atoms: _283  and  _285
REMARK  113  A    between atoms: _285  and  _286
REMARK  114  A    between atoms: _285  and  _288
REMARK  115  A    between atoms: _288  and  _289
REMARK  116  A    between atoms: _292  and  _294
REMARK  117  A    between atoms: _294  and  _295
REMARK  118  A    between atoms: _294  and  _297
REMARK  119  A    between atoms: _297  and  _298
REMARK  120  A    between atoms: _298  and  _299
REMARK  121  A    between atoms: _302  and  _304
REMARK  122  A    between atoms: _304  and  _305
REMARK  123  A    between atoms: _304  and  _307
REMARK  124  A    between atoms: _307  and  _308
REMARK  125  A    between atoms: _310  and  _312
REMARK  126  A    between atoms: _312  and  _313
REMARK  127  A    between atoms: _312  and  _315
REMARK  128  A    between atoms: _315  and  _316
REMARK  129  A    between atoms: _319  and  _321
REMARK  130  A    between atoms: _321  and  _322
REMARK  131  A    between atoms: _321  and  _324
REMARK  132  A    between atoms: _324  and  _325
REMARK  133  A    between atoms: _328  and  _330
REMARK  134  A    between atoms: _330  and  _331
REMARK  135  A    between atoms: _333  and  _335
REMARK  136  A    between atoms: _335  and  _336
REMARK  137  A    between atoms: _335  and  _338
REMARK  138  A    between atoms: _338  and  _339
REMARK  139  A    between atoms: _349  and  _351
REMARK  140  A    between atoms: _351  and  _352
REMARK  141  A    between atoms: _351  and  _354
REMARK  142  A    between atoms: _354  and  _355
REMARK  143  A    between atoms: _355  and  _356
REMARK  144  A    between atoms: _356  and  _357
REMARK  145  A    between atoms: _357  and  _358
REMARK  146  A    between atoms: _362  and  _364
REMARK  147  A    between atoms: _364  and  _365
REMARK  148  A    between atoms: _364  and  _367
REMARK  149  A    between atoms: _367  and  _368
REMARK  150  A    between atoms: _368  and  _369
REMARK  151  A    between atoms: _372  and  _374
REMARK  152  A    between atoms: _374  and  _375
REMARK  153  A    between atoms: _374  and  _377
REMARK  154  A    between atoms: _377  and  _378
REMARK  155  A    between atoms: _383  and  _384
REMARK  156  A    between atoms: _386  and  _388
REMARK  157  A    between atoms: _388  and  _389
REMARK  158  A    between atoms: _388  and  _391
REMARK  159  A    between atoms: _391  and  _392
REMARK  160  A    between atoms: _392  and  _393
REMARK  161  A    between atoms: _396  and  _398
REMARK  162  A    between atoms: _398  and  _399
REMARK  163  A    between atoms: _398  and  _401
REMARK  164  A    between atoms: _401  and  _402
REMARK  165  A    between atoms: _407  and  _409
REMARK  166  A    between atoms: _409  and  _410
REMARK  167  A    between atoms: _409  and  _412
REMARK  168  A    between atoms: _412  and  _413
REMARK  169  A    between atoms: _416  and  _418
REMARK  170  A    between atoms: _418  and  _419
REMARK  171  A    between atoms: _422  and  _424
REMARK  172  A    between atoms: _424  and  _425
REMARK  173  A    between atoms: _424  and  _427
REMARK  174  A    between atoms: _427  and  _428
REMARK  175  A    between atoms: _428  and  _429
REMARK  176  A    between atoms: _431  and  _433
REMARK  177  A    between atoms: _433  and  _434
REMARK  178  A    between atoms: _436  and  _438
REMARK  179  A    between atoms: _438  and  _439
REMARK  180  A    between atoms: _438  and  _441
REMARK  181  A    between atoms: _441  and  _442
REMARK  182  A    between atoms: _445  and  _447
REMARK  183  A    between atoms: _447  and  _448
REMARK  184  A    between atoms: _447  and  _450
REMARK  185  A    between atoms: _450  and  _451
REMARK  186  A    between atoms: _456  and  _458
REMARK  187  A    between atoms: _458  and  _459
REMARK  188  A    between atoms: _458  and  _461
REMARK  189  A    between atoms: _461  and  _462
REMARK  190  A    between atoms: _465  and  _467
REMARK  191  A    between atoms: _467  and  _468
REMARK  192  A    between atoms: _470  and  _472
REMARK  193  A    between atoms: _472  and  _473
REMARK  194  A    between atoms: _472  and  _475
REMARK  195  A    between atoms: _475  and  _476
REMARK  196  A    between atoms: _479  and  _481
REMARK  197  A    between atoms: _481  and  _482
REMARK  198  A    between atoms: _481  and  _484
REMARK  199  A    between atoms: _484  and  _485
REMARK  200  A    between atoms: _487  and  _489
REMARK  201  A    between atoms: _489  and  _490
REMARK  202  A    between atoms: _489  and  _492
REMARK  203  A    between atoms: _492  and  _493
REMARK  204  A    between atoms: _498  and  _500
REMARK  205  A    between atoms: _500  and  _501
REMARK  206  A    between atoms: _500  and  _503
REMARK  207  A    between atoms: _503  and  _504
REMARK  208  A    between atoms: _504  and  _505
REMARK  209  A    between atoms: _510  and  _512
REMARK  210  A    between atoms: _512  and  _513
REMARK  211  A    between atoms: _512  and  _515
REMARK  212  A    between atoms: _515  and  _516
REMARK  213  A    between atoms: _522  and  _524
REMARK  214  A    between atoms: _524  and  _525
REMARK  215  A    between atoms: _528  and  _530
REMARK  216  A    between atoms: _530  and  _531
REMARK  217  A    between atoms: _530  and  _533
REMARK  218  A    between atoms: _533  and  _534
REMARK  219  A    between atoms: _537  and  _539
REMARK  220  A    between atoms: _539  and  _540
REMARK  221  A    between atoms: _539  and  _542
REMARK  222  A    between atoms: _545  and  _547
REMARK  223  A    between atoms: _547  and  _548
REMARK  224  A    between atoms: _547  and  _550
REMARK  225  A    between atoms: _550  and  _551
REMARK  226  A    between atoms: _554  and  _556
REMARK  227  A    between atoms: _566  and  _569
REMARK  228  A    between atoms: _569  and  _570
REMARK  229  A    between atoms: _570  and  _571
REMARK  230  A    between atoms: _575  and  _576
REMARK  231  A    between atoms: _579  and  _581
REMARK  232  A    between atoms: _585  and  _586
REMARK  233  A    between atoms: _591  and  _593
REMARK  234  A    between atoms: _593  and  _594
REMARK  235  A    between atoms: _593  and  _596
REMARK  236  A    between atoms: _596  and  _597
REMARK  237  A    between atoms: _597  and  _598
REMARK  238  A    between atoms: _598  and  _599
REMARK  239  A    between atoms: _608  and  _610
REMARK  240  A    between atoms: _610  and  _611
REMARK  241  A    between atoms: _610  and  _613
REMARK  242  A    between atoms: _616  and  _618
REMARK  243  A    between atoms: _618  and  _619
REMARK  244  A    between atoms: _618  and  _621
REMARK  245  A    between atoms: _621  and  _622
REMARK  246  A    between atoms: _624  and  _626
REMARK  247  A    between atoms: _626  and  _627
REMARK  248  A    between atoms: _626  and  _629
REMARK  249  A    between atoms: _629  and  _630
REMARK  250  A    between atoms: _630  and  _631
REMARK  251  A    between atoms: _631  and  _632
REMARK  252  A    between atoms: _641  and  _643
REMARK  253  A    between atoms: _643  and  _644
REMARK  254  A    between atoms: _643  and  _646
REMARK  255  A    between atoms: _646  and  _647
REMARK  256  A    between atoms: _649  and  _651
REMARK  257  A    between atoms: _651  and  _652
REMARK  258  A    between atoms: _651  and  _654
REMARK  259  A    between atoms: _654  and  _655
REMARK  260  A    between atoms: _658  and  _660
REMARK  261  A    between atoms: _660  and  _661
REMARK  262  A    between atoms: _660  and  _663
REMARK  263  A    between atoms: _663  and  _664
REMARK  264  A    between atoms: _667  and  _669
REMARK  265  A    between atoms: _669  and  _670
REMARK  266  A    between atoms: _669  and  _672
REMARK  267  A    between atoms: _672  and  _673
REMARK  268  A    between atoms: _673  and  _674
REMARK  269  A    between atoms: _679  and  _681
REMARK  270  A    between atoms: _681  and  _682
REMARK  271  A    between atoms: _681  and  _684
REMARK  272  A    between atoms: _684  and  _685
REMARK  273  A    between atoms: _685  and  _686
REMARK  274  A    between atoms: _688  and  _690
REMARK  275  A    between atoms: _690  and  _691
REMARK  276  A    between atoms: _690  and  _693
REMARK  277  A    between atoms: _693  and  _694
REMARK  278  A    between atoms: _694  and  _695
REMARK  279  A    between atoms: _695  and  _696
REMARK  280  A    between atoms: _696  and  _697
REMARK                            x       y       z     vdW  Elec       q    Type
REMARK                         _______ _______ _______ _____ _____    ______ ____
ROOT
ATOM      1  C   ALA A   1      14.067  23.827  78.511  0.00  0.00    +0.238 C 
ATOM      2  N   GLU A   2      14.716  22.721  78.194  0.00  0.00    -0.298 N 
ATOM      3  H   GLU A   2      15.121  22.116  78.937  0.00  0.00    +0.150 HD
ATOM      4  O   ALA A   1      13.572  24.552  77.665  0.00  0.00    -0.274 OA
ENDROOT
BRANCH   1   5
ATOM      5  CA  ALA A   1      13.979  24.147  79.989  0.00  0.00    +0.145 C 
ATOM      6  CB  ALA A   1      15.302  24.692  80.484  0.00  0.00    +0.028 C 
BRANCH   5   7
ATOM      7  N   ALA A   1      13.627  22.973  80.746  0.00  0.00    -0.238 NA
ATOM      8  H   ALA A   1      14.374  22.316  81.050  0.00  0.00    +0.142 HD
ENDBRANCH   5   7
ENDBRANCH   1   5
BRANCH   2   9
ATOM      9  CA  GLU A   2      14.854  22.367  76.815  0.00  0.00    +0.137 C 
BRANCH   9  10
ATOM     10  C   GLU A   2      13.536  22.089  76.148  0.00  0.00    +0.227 C 
ATOM     11  O   GLU A   2      13.371  22.338  74.953  0.00  0.00    -0.286 OA
ENDBRANCH   9  10
BRANCH   9  12
ATOM     12  CB  GLU A   2      15.977  21.363  76.565  0.00  0.00    +0.039 C 
BRANCH  12  13
ATOM     13  CG  GLU A   2      17.346  22.052  76.801  0.00  0.00    +0.116 C 
BRANCH  13  14
ATOM     14  CD  GLU A   2      17.704  23.198  75.865  0.00  0.00    +0.365 C 
ATOM     15  OE2 GLU A   2      18.375  24.153  76.230  0.00  0.00    -0.246 OA
ATOM     16  OE1 GLU A   2      17.279  23.040  74.625  0.00  0.00    -0.246 OA
ENDBRANCH  13  14
ENDBRANCH  12  13
ENDBRANCH   9  12
ENDBRANCH   2   9
TORSDOF 7
REMARK  Name = ../refined-set-2016/1bxr/1bxr_pocket.pdb
REMARK  280 active torsions:
REMARK  status: ('A' for Active; 'I' for Inactive)
REMARK    1  A    between atoms: _1  and  _3
REMARK    2  A    between atoms: _3  and  _4
REMARK    3  A    between atoms: _6  and  _8
REMARK    4  A    between atoms: _8  and  _9
REMARK    5  A    between atoms: _8  and  _11
REMARK    6  A    between atoms: _11  and  _12
REMARK    7  A    between atoms: _12  and  _13
REMARK    8  A    between atoms: _18  and  _20
REMARK    9  A    between atoms: _20  and  _21
REMARK   10  A    between atoms: _20  and  _23
REMARK   11  A    between atoms: _23  and  _24
REMARK   12  A    between atoms: _30  and  _32
REMARK   13  A    between atoms: _32  and  _33
REMARK   14  A    between atoms: _32  and  _35
REMARK   15  A    between atoms: _35  and  _36
REMARK   16  A    between atoms: _36  and  _37
REMARK   17  A    between atoms: _42  and  _44
REMARK   18  A    between atoms: _44  and  _45
REMARK   19  A    between atoms: _48  and  _50
REMARK   20  A    between atoms: _50  and  _51
REMARK   21  A    between atoms: _50  and  _53
REMARK   22  A    between atoms: _53  and  _54
REMARK   23  A    between atoms: _54  and  _55
REMARK   24  A    between atoms: _58  and  _60
REMARK   25  A    between atoms: _60  and  _61
REMARK   26  A    between atoms: _60  and  _63
REMARK   27  A    between atoms: _63  and  _64
REMARK   28  A    between atoms: _65  and  _66
REMARK   29  A    between atoms: _75  and  _77
REMARK   30  A    between atoms: _77  and  _78
REMARK   31  A    between atoms: _77  and  _80
REMARK   32  A    between atoms: _80  and  _81
REMARK   33  A    between atoms: _84  and  _86
REMARK   34  A    between atoms: _86  and  _87
REMARK   35  A    between atoms: _90  and  _92
REMARK   36  A    between atoms: _92  and  _93
REMARK   37  A    between atoms: _92  and  _95
REMARK   38  A    between atoms: _95  and  _96
REMARK   39  A    between atoms: _96  and  _97
REMARK   40  A    between atoms: _97  and  _98
REMARK   41  A    between atoms: _107  and  _109
REMARK   42  A    between atoms: _109  and  _110
REMARK   43  A    between atoms: _109  and  _112
REMARK   44  A    between atoms: _112  and  _113
REMARK   45  A    between atoms: _116  and  _117
REMARK   46  A    between atoms: _122  and  _124
REMARK   47  A    between atoms: _124  and  _125
REMARK   48  A    between atoms: _124  and  _127
REMARK   49  A    between atoms: _129  and  _131
REMARK   50  A    between atoms: _131  and  _132
REMARK   51  A    between atoms: _131  and  _134
REMARK   52  A    between atoms: _134  and  _135
REMARK   53  A    between atoms: _138  and  _140
REMARK   54  A    between atoms: _140  and  _141
REMARK   55  A    between atoms: _140  and  _143
REMARK   56  A    between atoms: _143  and  _144
REMARK   57  A    between atoms: _147  and  _149
REMARK   58  A    between atoms: _149  and  _150
REMARK   59  A    between atoms: _149  and  _152
REMARK   60  A    between atoms: _152  and  _153
REMARK   61  A    between atoms: _153  and  _154
REMARK   62  A    between atoms: _154  and  _155
REMARK   63  A    between atoms: _165  and  _166
REMARK   64  A    between atoms: _171  and  _173
REMARK   65  A    between atoms: _173  and  _174
REMARK   66  A    between atoms: _173  and  _176
REMARK   67  A    between atoms: _176  and  _177
REMARK   68  A    between atoms: _179  and  _181
REMARK   69  A    between atoms: _181  and  _182
REMARK   70  A    between atoms: _181  and  _184
REMARK   71  A    between atoms: _184  and  _185
REMARK   72  A    between atoms: _191  and  _193
REMARK   73  A    between atoms: _193  and  _194
REMARK   74  A    between atoms: _193  and  _196
REMARK   75  A    between atoms: _196  and  _197
REMARK   76  A    between atoms: _200  and  _202
REMARK   77  A    between atoms: _202  and  _203
REMARK   78  A    between atoms: _202  and  _205
REMARK   79  A    between atoms: _205  and  _206
REMARK   80  A    between atoms: _206  and  _207
REMARK   81  A    between atoms: _209  and  _211
REMARK   82  A    between atoms: _211  and  _212
REMARK   83  A    between atoms: _214  and  _216
REMARK   84  A    between atoms: _216  and  _217
REMARK   85  A    between atoms: _219  and  _221
REMARK   86  A    between atoms: _221  and  _222
REMARK   87  A    between atoms: _221  and  _224
REMARK   88  A    between atoms: _224  and  _225
REMARK   89  A    between atoms: _227  and  _229
REMARK   90  A    between atoms: _229  and  _230
REMARK   91  A    between atoms: _232  and  _234
REMARK   92  A    between atoms: _234  and  _235
REMARK   93  A    between atoms: _237  and  _239
REMARK   94  A    between atoms: _239  and  _240
REMARK   95  A    between atoms: _242  and  _244
REMARK   96  A    between atoms: _244  and  _245
REMARK   97  A    between atoms: _244  and  _247
REMARK   98  A    between atoms: _247  and  _248
REMARK   99  A    between atoms: _251  and  _253
REMARK  100  A    between atoms: _253  and  _254
REMARK  101  A    between atoms: _253  and  _256
REMARK  102  A    between atoms: _256  and  _257
REMARK  103  A    between atoms: _262  and  _263
REMARK  104  A    between atoms: _265  and  _267
REMARK  105  A    between atoms: _267  and  _268
REMARK  106  A    between atoms: _267  and  _270
REMARK  107  A    between atoms: _270  and  _271
REMARK  108  A    between atoms: _274  and  _276
REMARK  109  A    between atoms: _276  and  _277
REMARK  110  A    between atoms: _276  and  _279
REMARK  111  A    between atoms: _279  and  _280
REMARK  112  A    between atoms: _283  and  _285
REMARK  113  A    between atoms: _285  and  _286
REMARK  114  A    between atoms: _285  and  _288
REMARK  115  A    between atoms: _288  and  _289
REMARK  116  A    between atoms: _292  and  _294
REMARK  117  A    between atoms: _294  and  _295
REMARK  118  A    between atoms: _294  and  _297
REMARK  119  A    between atoms: _297  and  _298
REMARK  120  A    between atoms: _298  and  _299
REMARK  121  A    between atoms: _302  and  _304
REMARK  122  A    between atoms: _304  and  _305
REMARK  123  A    between atoms: _304  and  _307
REMARK  124  A    between atoms: _307  and  _308
REMARK  125  A    between atoms: _310  and  _312
REMARK  126  A    between atoms: _312  and  _313
REMARK  127  A    between atoms: _312  and  _315
REMARK  128  A    between atoms: _315  and  _316
REMARK  129  A    between atoms: _319  and  _321
REMARK  130  A    between atoms: _321  and  _322
REMARK  131  A    between atoms: _321  and  _324
REMARK  132  A    between atoms: _324  and  _325
REMARK  133  A    between atoms: _328  and  _330
REMARK  134  A    between atoms: _330  and  _331
REMARK  135  A    between atoms: _333  and  _335
REMARK  136  A    between atoms: _335  and  _336
REMARK  137  A    between atoms: _335  and  _338
REMARK  138  A    between atoms: _338  and  _339
REMARK  139  A    between atoms: _349  and  _351
REMARK  140  A    between atoms: _351  and  _352
REMARK  141  A    between atoms: _351  and  _354
REMARK  142  A    between atoms: _354  and  _355
REMARK  143  A    between atoms: _355  and  _356
REMARK  144  A    between atoms: _356  and  _357
REMARK  145  A    between atoms: _357  and  _358
REMARK  146  A    between atoms: _362  and  _364
REMARK  147  A    between atoms: _364  and  _365
REMARK  148  A    between atoms: _364  and  _367
REMARK  149  A    between atoms: _367  and  _368
REMARK  150  A    between atoms: _368  and  _369
REMARK  151  A    between atoms: _372  and  _374
REMARK  152  A    between atoms: _374  and  _375
REMARK  153  A    between atoms: _374  and  _377
REMARK  154  A    between atoms: _377  and  _378
REMARK  155  A    between atoms: _383  and  _384
REMARK  156  A    between atoms: _386  and  _388
REMARK  157  A    between atoms: _388  and  _389
REMARK  158  A    between atoms: _388  and  _391
REMARK  159  A    between atoms: _391  and  _392
REMARK  160  A    between atoms: _392  and  _393
REMARK  161  A    between atoms: _396  and  _398
REMARK  162  A    between atoms: _398  and  _399
REMARK  163  A    between atoms: _398  and  _401
REMARK  164  A    between atoms: _401  and  _402
REMARK  165  A    between atoms: _407  and  _409
REMARK  166  A    between atoms: _409  and  _410
REMARK  167  A    between atoms: _409  and  _412
REMARK  168  A    between atoms: _412  and  _413
REMARK  169  A    between atoms: _416  and  _418
REMARK  170  A    between atoms: _418  and  _419
REMARK  171  A    between atoms: _422  and  _424
REMARK  172  A    between atoms: _424  and  _425
REMARK  173  A    between atoms: _424  and  _427
REMARK  174  A    between atoms: _427  and  _428
REMARK  175  A    between atoms: _428  and  _429
REMARK  176  A    between atoms: _431  and  _433
REMARK  177  A    between atoms: _433  and  _434
REMARK  178  A    between atoms: _436  and  _438
REMARK  179  A    between atoms: _438  and  _439
REMARK  180  A    between atoms: _438  and  _441
REMARK  181  A    between atoms: _441  and  _442
REMARK  182  A    between atoms: _445  and  _447
REMARK  183  A    between atoms: _447  and  _448
REMARK  184  A    between atoms: _447  and  _450
REMARK  185  A    between atoms: _450  and  _451
REMARK  186  A    between atoms: _456  and  _458
REMARK  187  A    between atoms: _458  and  _459
REMARK  188  A    between atoms: _458  and  _461
REMARK  189  A    between atoms: _461  and  _462
REMARK  190  A    between atoms: _465  and  _467
REMARK  191  A    between atoms: _467  and  _468
REMARK  192  A    between atoms: _470  and  _472
REMARK  193  A    between atoms: _472  and  _473
REMARK  194  A    between atoms: _472  and  _475
REMARK  195  A    between atoms: _475  and  _476
REMARK  196  A    between atoms: _479  and  _481
REMARK  197  A    between atoms: _481  and  _482
REMARK  198  A    between atoms: _481  and  _484
REMARK  199  A    between atoms: _484  and  _485
REMARK  200  A    between atoms: _487  and  _489
REMARK  201  A    between atoms: _489  and  _490
REMARK  202  A    between atoms: _489  and  _492
REMARK  203  A    between atoms: _492  and  _493
REMARK  204  A    between atoms: _498  and  _500
REMARK  205  A    between atoms: _500  and  _501
REMARK  206  A    between atoms: _500  and  _503
REMARK  207  A    between atoms: _503  and  _504
REMARK  208  A    between atoms: _504  and  _505
REMARK  209  A    between atoms: _510  and  _512
REMARK  210  A    between atoms: _512  and  _513
REMARK  211  A    between atoms: _512  and  _515
REMARK  212  A    between atoms: _515  and  _516
REMARK  213  A    between atoms: _522  and  _524
REMARK  214  A    between atoms: _524  and  _525
REMARK  215  A    between atoms: _528  and  _530
REMARK  216  A    between atoms: _530  and  _531
REMARK  217  A    between atoms: _530  and  _533
REMARK  218  A    between atoms: _533  and  _534
REMARK  219  A    between atoms: _537  and  _539
REMARK  220  A    between atoms: _539  and  _540
REMARK  221  A    between atoms: _539  and  _542
REMARK  222  A    between atoms: _545  and  _547
REMARK  223  A    between atoms: _547  and  _548
REMARK  224  A    between atoms: _547  and  _550
REMARK  225  A    between atoms: _550  and  _551
REMARK  226  A    between atoms: _554  and  _556
REMARK  227  A    between atoms: _566  and  _569
REMARK  228  A    between atoms: _569  and  _570
REMARK  229  A    between atoms: _570  and  _571
REMARK  230  A    between atoms: _575  and  _576
REMARK  231  A    between atoms: _579  and  _581
REMARK  232  A    between atoms: _585  and  _586
REMARK  233  A    between atoms: _591  and  _593
REMARK  234  A    between atoms: _593  and  _594
REMARK  235  A    between atoms: _593  and  _596
REMARK  236  A    between atoms: _596  and  _597
REMARK  237  A    between atoms: _597  and  _598
REMARK  238  A    between atoms: _598  and  _599
REMARK  239  A    between atoms: _608  and  _610
REMARK  240  A    between atoms: _610  and  _611
REMARK  241  A    between atoms: _610  and  _613
REMARK  242  A    between atoms: _616  and  _618
REMARK  243  A    between atoms: _618  and  _619
REMARK  244  A    between atoms: _618  and  _621
REMARK  245  A    between atoms: _621  and  _622
REMARK  246  A    between atoms: _624  and  _626
REMARK  247  A    between atoms: _626  and  _627
REMARK  248  A    between atoms: _626  and  _629
REMARK  249  A    between atoms: _629  and  _630
REMARK  250  A    between atoms: _630  and  _631
REMARK  251  A    between atoms: _631  and  _632
REMARK  252  A    between atoms: _641  and  _643
REMARK  253  A    between atoms: _643  and  _644
REMARK  254  A    between atoms: _643  and  _646
REMARK  255  A    between atoms: _646  and  _647
REMARK  256  A    between atoms: _649  and  _651
REMARK  257  A    between atoms: _651  and  _652
REMARK  258  A    between atoms: _651  and  _654
REMARK  259  A    between atoms: _654  and  _655
REMARK  260  A    between atoms: _658  and  _660
REMARK  261  A    between atoms: _660  and  _661
REMARK  262  A    between atoms: _660  and  _663
REMARK  263  A    between atoms: _663  and  _664
REMARK  264  A    between atoms: _667  and  _669
REMARK  265  A    between atoms: _669  and  _670
REMARK  266  A    between atoms: _669  and  _672
REMARK  267  A    between atoms: _672  and  _673
REMARK  268  A    between atoms: _673  and  _674
REMARK  269  A    between atoms: _679  and  _681
REMARK  270  A    between atoms: _681  and  _682
REMARK  271  A    between atoms: _681  and  _684
REMARK  272  A    between atoms: _684  and  _685
REMARK  273  A    between atoms: _685  and  _686
REMARK  274  A    between atoms: _688  and  _690
REMARK  275  A    between atoms: _690  and  _691
REMARK  276  A    between atoms: _690  and  _693
REMARK  277  A    between atoms: _693  and  _694
REMARK  278  A    between atoms: _694  and  _695
REMARK  279  A    between atoms: _695  and  _696
REMARK  280  A    between atoms: _696  and  _697
REMARK                            x       y       z     vdW  Elec       q    Type
REMARK                         _______ _______ _______ _____ _____    ______ ____
ROOT
ATOM      1  NE  ARG A   1      13.074  26.230  72.122  0.00  0.00    -0.243 N 
ATOM      2  CZ  ARG A   1      14.067  27.111  72.373  0.00  0.00    +0.346 C 
ATOM      3  NH2 ARG A   1      13.890  28.138  73.199  0.00  0.00    -0.292 N 
ATOM      4 HH21 ARG A   1      12.972  28.276  73.668  0.00  0.00    +0.255 HD
ATOM      5 HH22 ARG A   1      14.670  28.803  73.376  0.00  0.00    +0.255 HD
ATOM      6  NH1 ARG A   1      15.274  26.956  71.795  0.00  0.00    -0.292 N 
ATOM      7 HH11 ARG A   1      16.036  27.637  71.991  0.00  0.00    +0.255 HD
ATOM      8 HH12 ARG A   1      15.444  26.156  71.153  0.00  0.00    +0.255 HD
ATOM      9  HE  ARG A   1      13.284  25.445  71.474  0.00  0.00    +0.265 HD
ENDROOT
BRANCH   1  11
ATOM     10  CG  ARG A   1      10.991  24.941  72.939  0.00  0.00    +0.012 C 
ATOM     11  CD  ARG A   1      11.708  26.293  72.697  0.00  0.00    +0.143 C 
BRANCH  10  12
ATOM     12  CB  ARG A   1       9.565  25.017  73.538  0.00  0.00    +0.054 C 
BRANCH  12  13
ATOM     13  CA  ARG A   1       9.400  24.348  74.931  0.00  0.00    +0.138 C 
BRANCH  13  14
ATOM     14  N   ARG A   1      10.107  23.078  75.137  0.00  0.00    -0.239 NA
ATOM     15  H   ARG A   1      10.295  22.473  74.312  0.00  0.00    +0.142 HD
ENDBRANCH  13  14
BRANCH  13  16
ATOM     16  C   ARG A   1       8.050  24.531  75.666  0.00  0.00    +0.224 C 
ATOM     17  O   ARG A   1       7.833  25.532  76.361  0.00  0.00    -0.287 OA
ENDBRANCH  13  16
ENDBRANCH  12  13
ENDBRANCH  10  12
ENDBRANCH   1  11
TORSDOF 5
REMARK  Name = ../refined-set-2016/1bxr/1bxr_pocket.pdb
REMARK  280 active torsions:
REMARK  status: ('A' for Active; 'I' for Inactive)
REMARK    1  A    between atoms: _1  and  _3
REMARK    2  A    between atoms: _3  and  _4
REMARK    3  A    between atoms: _6  and  _8
REMARK    4  A    between atoms: _8  and  _9
REMARK    5  A    between atoms: _8  and  _11
REMARK    6  A    between atoms: _11  and  _12
REMARK    7  A    between atoms: _12  and  _13
REMARK    8  A    between atoms: _18  and  _20
REMARK    9  A    between atoms: _20  and  _21
REMARK   10  A    between atoms: _20  and  _23
REMARK   11  A    between atoms: _23  and  _24
REMARK   12  A    between atoms: _30  and  _32
REMARK   13  A    between atoms: _32  and  _33
REMARK   14  A    between atoms: _32  and  _35
REMARK   15  A    between atoms: _35  and  _36
REMARK   16  A    between atoms: _36  and  _37
REMARK   17  A    between atoms: _42  and  _44
REMARK   18  A    between atoms: _44  and  _45
REMARK   19  A    between atoms: _48  and  _50
REMARK   20  A    between atoms: _50  and  _51
REMARK   21  A    between atoms: _50  and  _53
REMARK   22  A    between atoms: _53  and  _54
REMARK   23  A    between atoms: _54  and  _55
REMARK   24  A    between atoms: _58  and  _60
REMARK   25  A    between atoms: _60  and  _61
REMARK   26  A    between atoms: _60  and  _63
REMARK   27  A    between atoms: _63  and  _64
REMARK   28  A    between atoms: _65  and  _66
REMARK   29  A    between atoms: _75  and  _77
REMARK   30  A    between atoms: _77  and  _78
REMARK   31  A    between atoms: _77  and  _80
REMARK   32  A    between atoms: _80  and  _81
REMARK   33  A    between atoms: _84  and  _86
REMARK   34  A    between atoms: _86  and  _87
REMARK   35  A    between atoms: _90  and  _92
REMARK   36  A    between atoms: _92  and  _93
REMARK   37  A    between atoms: _92  and  _95
REMARK   38  A    between atoms: _95  and  _96
REMARK   39  A    between atoms: _96  and  _97
REMARK   40  A    between atoms: _97  and  _98
REMARK   41  A    between atoms: _107  and  _109
REMARK   42  A    between atoms: _109  and  _110
REMARK   43  A    between atoms: _109  and  _112
REMARK   44  A    between atoms: _112  and  _113
REMARK   45  A    between atoms: _116  and  _117
REMARK   46  A    between atoms: _122  and  _124
REMARK   47  A    between atoms: _124  and  _125
REMARK   48  A    between atoms: _124  and  _127
REMARK   49  A    between atoms: _129  and  _131
REMARK   50  A    between atoms: _131  and  _132
REMARK   51  A    between atoms: _131  and  _134
REMARK   52  A    between atoms: _134  and  _135
REMARK   53  A    between atoms: _138  and  _140
REMARK   54  A    between atoms: _140  and  _141
REMARK   55  A    between atoms: _140  and  _143
REMARK   56  A    between atoms: _143  and  _144
REMARK   57  A    between atoms: _147  and  _149
REMARK   58  A    between atoms: _149  and  _150
REMARK   59  A    between atoms: _149  and  _152
REMARK   60  A    between atoms: _152  and  _153
REMARK   61  A    between atoms: _153  and  _154
REMARK   62  A    between atoms: _154  and  _155
REMARK   63  A    between atoms: _165  and  _166
REMARK   64  A    between atoms: _171  and  _173
REMARK   65  A    between atoms: _173  and  _174
REMARK   66  A    between atoms: _173  and  _176
REMARK   67  A    between atoms: _176  and  _177
REMARK   68  A    between atoms: _179  and  _181
REMARK   69  A    between atoms: _181  and  _182
REMARK   70  A    between atoms: _181  and  _184
REMARK   71  A    between atoms: _184  and  _185
REMARK   72  A    between atoms: _191  and  _193
REMARK   73  A    between atoms: _193  and  _194
REMARK   74  A    between atoms: _193  and  _196
REMARK   75  A    between atoms: _196  and  _197
REMARK   76  A    between atoms: _200  and  _202
REMARK   77  A    between atoms: _202  and  _203
REMARK   78  A    between atoms: _202  and  _205
REMARK   79  A    between atoms: _205  and  _206
REMARK   80  A    between atoms: _206  and  _207
REMARK   81  A    between atoms: _209  and  _211
REMARK   82  A    between atoms: _211  and  _212
REMARK   83  A    between atoms: _214  and  _216
REMARK   84  A    between atoms: _216  and  _217
REMARK   85  A    between atoms: _219  and  _221
REMARK   86  A    between atoms: _221  and  _222
REMARK   87  A    between atoms: _221  and  _224
REMARK   88  A    between atoms: _224  and  _225
REMARK   89  A    between atoms: _227  and  _229
REMARK   90  A    between atoms: _229  and  _230
REMARK   91  A    between atoms: _232  and  _234
REMARK   92  A    between atoms: _234  and  _235
REMARK   93  A    between atoms: _237  and  _239
REMARK   94  A    between atoms: _239  and  _240
REMARK   95  A    between atoms: _242  and  _244
REMARK   96  A    between atoms: _244  and  _245
REMARK   97  A    between atoms: _244  and  _247
REMARK   98  A    between atoms: _247  and  _248
REMARK   99  A    between atoms: _251  and  _253
REMARK  100  A    between atoms: _253  and  _254
REMARK  101  A    between atoms: _253  and  _256
REMARK  102  A    between atoms: _256  and  _257
REMARK  103  A    between atoms: _262  and  _263
REMARK  104  A    between atoms: _265  and  _267
REMARK  105  A    between atoms: _267  and  _268
REMARK  106  A    between atoms: _267  and  _270
REMARK  107  A    between atoms: _270  and  _271
REMARK  108  A    between atoms: _274  and  _276
REMARK  109  A    between atoms: _276  and  _277
REMARK  110  A    between atoms: _276  and  _279
REMARK  111  A    between atoms: _279  and  _280
REMARK  112  A    between atoms: _283  and  _285
REMARK  113  A    between atoms: _285  and  _286
REMARK  114  A    between atoms: _285  and  _288
REMARK  115  A    between atoms: _288  and  _289
REMARK  116  A    between atoms: _292  and  _294
REMARK  117  A    between atoms: _294  and  _295
REMARK  118  A    between atoms: _294  and  _297
REMARK  119  A    between atoms: _297  and  _298
REMARK  120  A    between atoms: _298  and  _299
REMARK  121  A    between atoms: _302  and  _304
REMARK  122  A    between atoms: _304  and  _305
REMARK  123  A    between atoms: _304  and  _307
REMARK  124  A    between atoms: _307  and  _308
REMARK  125  A    between atoms: _310  and  _312
REMARK  126  A    between atoms: _312  and  _313
REMARK  127  A    between atoms: _312  and  _315
REMARK  128  A    between atoms: _315  and  _316
REMARK  129  A    between atoms: _319  and  _321
REMARK  130  A    between atoms: _321  and  _322
REMARK  131  A    between atoms: _321  and  _324
REMARK  132  A    between atoms: _324  and  _325
REMARK  133  A    between atoms: _328  and  _330
REMARK  134  A    between atoms: _330  and  _331
REMARK  135  A    between atoms: _333  and  _335
REMARK  136  A    between atoms: _335  and  _336
REMARK  137  A    between atoms: _335  and  _338
REMARK  138  A    between atoms: _338  and  _339
REMARK  139  A    between atoms: _349  and  _351
REMARK  140  A    between atoms: _351  and  _352
REMARK  141  A    between atoms: _351  and  _354
REMARK  142  A    between atoms: _354  and  _355
REMARK  143  A    between atoms: _355  and  _356
REMARK  144  A    between atoms: _356  and  _357
REMARK  145  A    between atoms: _357  and  _358
REMARK  146  A    between atoms: _362  and  _364
REMARK  147  A    between atoms: _364  and  _365
REMARK  148  A    between atoms: _364  and  _367
REMARK  149  A    between atoms: _367  and  _368
REMARK  150  A    between atoms: _368  and  _369
REMARK  151  A    between atoms: _372  and  _374
REMARK  152  A    between atoms: _374  and  _375
REMARK  153  A    between atoms: _374  and  _377
REMARK  154  A    between atoms: _377  and  _378
REMARK  155  A    between atoms: _383  and  _384
REMARK  156  A    between atoms: _386  and  _388
REMARK  157  A    between atoms: _388  and  _389
REMARK  158  A    between atoms: _388  and  _391
REMARK  159  A    between atoms: _391  and  _392
REMARK  160  A    between atoms: _392  and  _393
REMARK  161  A    between atoms: _396  and  _398
REMARK  162  A    between atoms: _398  and  _399
REMARK  163  A    between atoms: _398  and  _401
REMARK  164  A    between atoms: _401  and  _402
REMARK  165  A    between atoms: _407  and  _409
REMARK  166  A    between atoms: _409  and  _410
REMARK  167  A    between atoms: _409  and  _412
REMARK  168  A    between atoms: _412  and  _413
REMARK  169  A    between atoms: _416  and  _418
REMARK  170  A    between atoms: _418  and  _419
REMARK  171  A    between atoms: _422  and  _424
REMARK  172  A    between atoms: _424  and  _425
REMARK  173  A    between atoms: _424  and  _427
REMARK  174  A    between atoms: _427  and  _428
REMARK  175  A    between atoms: _428  and  _429
REMARK  176  A    between atoms: _431  and  _433
REMARK  177  A    between atoms: _433  and  _434
REMARK  178  A    between atoms: _436  and  _438
REMARK  179  A    between atoms: _438  and  _439
REMARK  180  A    between atoms: _438  and  _441
REMARK  181  A    between atoms: _441  and  _442
REMARK  182  A    between atoms: _445  and  _447
REMARK  183  A    between atoms: _447  and  _448
REMARK  184  A    between atoms: _447  and  _450
REMARK  185  A    between atoms: _450  and  _451
REMARK  186  A    between atoms: _456  and  _458
REMARK  187  A    between atoms: _458  and  _459
REMARK  188  A    between atoms: _458  and  _461
REMARK  189  A    between atoms: _461  and  _462
REMARK  190  A    between atoms: _465  and  _467
REMARK  191  A    between atoms: _467  and  _468
REMARK  192  A    between atoms: _470  and  _472
REMARK  193  A    between atoms: _472  and  _473
REMARK  194  A    between atoms: _472  and  _475
REMARK  195  A    between atoms: _475  and  _476
REMARK  196  A    between atoms: _479  and  _481
REMARK  197  A    between atoms: _481  and  _482
REMARK  198  A    between atoms: _481  and  _484
REMARK  199  A    between atoms: _484  and  _485
REMARK  200  A    between atoms: _487  and  _489
REMARK  201  A    between atoms: _489  and  _490
REMARK  202  A    between atoms: _489  and  _492
REMARK  203  A    between atoms: _492  and  _493
REMARK  204  A    between atoms: _498  and  _500
REMARK  205  A    between atoms: _500  and  _501
REMARK  206  A    between atoms: _500  and  _503
REMARK  207  A    between atoms: _503  and  _504
REMARK  208  A    between atoms: _504  and  _505
REMARK  209  A    between atoms: _510  and  _512
REMARK  210  A    between atoms: _512  and  _513
REMARK  211  A    between atoms: _512  and  _515
REMARK  212  A    between atoms: _515  and  _516
REMARK  213  A    between atoms: _522  and  _524
REMARK  214  A    between atoms: _524  and  _525
REMARK  215  A    between atoms: _528  and  _530
REMARK  216  A    between atoms: _530  and  _531
REMARK  217  A    between atoms: _530  and  _533
REMARK  218  A    between atoms: _533  and  _534
REMARK  219  A    between atoms: _537  and  _539
REMARK  220  A    between atoms: _539  and  _540
REMARK  221  A    between atoms: _539  and  _542
REMARK  222  A    between atoms: _545  and  _547
REMARK  223  A    between atoms: _547  and  _548
REMARK  224  A    between atoms: _547  and  _550
REMARK  225  A    between atoms: _550  and  _551
REMARK  226  A    between atoms: _554  and  _556
REMARK  227  A    between atoms: _566  and  _569
REMARK  228  A    between atoms: _569  and  _570
REMARK  229  A    between atoms: _570  and  _571
REMARK  230  A    between atoms: _575  and  _576
REMARK  231  A    between atoms: _579  and  _581
REMARK  232  A    between atoms: _585  and  _586
REMARK  233  A    between atoms: _591  and  _593
REMARK  234  A    between atoms: _593  and  _594
REMARK  235  A    between atoms: _593  and  _596
REMARK  236  A    between atoms: _596  and  _597
REMARK  237  A    between atoms: _597  and  _598
REMARK  238  A    between atoms: _598  and  _599
REMARK  239  A    between atoms: _608  and  _610
REMARK  240  A    between atoms: _610  and  _611
REMARK  241  A    between atoms: _610  and  _613
REMARK  242  A    between atoms: _616  and  _618
REMARK  243  A    between atoms: _618  and  _619
REMARK  244  A    between atoms: _618  and  _621
REMARK  245  A    between atoms: _621  and  _622
REMARK  246  A    between atoms: _624  and  _626
REMARK  247  A    between atoms: _626  and  _627
REMARK  248  A    between atoms: _626  and  _629
REMARK  249  A    between atoms: _629  and  _630
REMARK  250  A    between atoms: _630  and  _631
REMARK  251  A    between atoms: _631  and  _632
REMARK  252  A    between atoms: _641  and  _643
REMARK  253  A    between atoms: _643  and  _644
REMARK  254  A    between atoms: _643  and  _646
REMARK  255  A    between atoms: _646  and  _647
REMARK  256  A    between atoms: _649  and  _651
REMARK  257  A    between atoms: _651  and  _652
REMARK  258  A    between atoms: _651  and  _654
REMARK  259  A    between atoms: _654  and  _655
REMARK  260  A    between atoms: _658  and  _660
REMARK  261  A    between atoms: _660  and  _661
REMARK  262  A    between atoms: _660  and  _663
REMARK  263  A    between atoms: _663  and  _664
REMARK  264  A    between atoms: _667  and  _669
REMARK  265  A    between atoms: _669  and  _670
REMARK  266  A    between atoms: _669  and  _672
REMARK  267  A    between atoms: _672  and  _673
REMARK  268  A    between atoms: _673  and  _674
REMARK  269  A    between atoms: _679  and  _681
REMARK  270  A    between atoms: _681  and  _682
REMARK  271  A    between atoms: _681  and  _684
REMARK  272  A    between atoms: _684  and  _685
REMARK  273  A    between atoms: _685  and  _686
REMARK  274  A    between atoms: _688  and  _690
REMARK  275  A    between atoms: _690  and  _691
REMARK  276  A    between atoms: _690  and  _693
REMARK  277  A    between atoms: _693  and  _694
REMARK  278  A    between atoms: _694  and  _695
REMARK  279  A    between atoms: _695  and  _696
REMARK  280  A    between atoms: _696  and  _697
REMARK                            x       y       z     vdW  Elec       q    Type
REMARK                         _______ _______ _______ _____ _____    ______ ____
ROOT
ATOM      1  CA  ARG A   3       1.602  34.378  72.191  0.00  0.00    +0.149 C 
ENDROOT
BRANCH   1   4
ATOM      2  C   ALA A   2       3.891  34.525  73.105  0.00  0.00    +0.241 C 
ATOM      3  O   ALA A   2       4.125  33.321  73.120  0.00  0.00    -0.273 OA
ATOM      4  N   ARG A   3       2.760  35.087  72.701  0.00  0.00    -0.297 N 
ATOM      5  H   ARG A   3       2.698  36.124  72.754  0.00  0.00    +0.150 HD
BRANCH   2   6
ATOM      6  CA  ALA A   2       4.948  35.512  73.540  0.00  0.00    +0.149 C 
ATOM      7  CB  ALA A   2       6.017  35.539  72.451  0.00  0.00    +0.031 C 
BRANCH   6  10
ATOM      8  C   THR A   1       4.928  35.358  76.000  0.00  0.00    +0.241 C 
ATOM      9  O   THR A   1       3.781  35.753  76.119  0.00  0.00    -0.274 OA
ATOM     10  N   ALA A   2       5.561  35.149  74.820  0.00  0.00    -0.297 N 
ATOM     11  H   ALA A   2       6.508  34.719  74.823  0.00  0.00    +0.150 HD
BRANCH   8  12
ATOM     12  CA  THR A   1       5.821  34.940  77.177  0.00  0.00    +0.172 C 
BRANCH  12  13
ATOM     13  CB  THR A   1       6.087  33.420  77.194  0.00  0.00    +0.135 C 
ATOM     14  CG2 THR A   1       6.638  32.939  78.525  0.00  0.00    +0.034 C 
BRANCH  13  15
ATOM     15  OG1 THR A   1       4.917  32.714  76.896  0.00  0.00    -0.383 OA
ATOM     16  HG1 THR A   1       5.106  31.742  76.911  0.00  0.00    +0.210 HD
ENDBRANCH  13  15
ENDBRANCH  12  13
BRANCH  12  17
ATOM     17  N   THR A   1       5.204  35.465  78.355  0.00  0.00    -0.236 NA
ATOM     18  H   THR A   1       4.191  35.310  78.531  0.00  0.00    +0.142 HD
ENDBRANCH  12  17
ENDBRANCH   8  12
ENDBRANCH   6  10
ENDBRANCH   2   6
ENDBRANCH   1   4
BRANCH   1  19
ATOM     19  C   ARG A   3       2.019  33.230  71.295  0.00  0.00    +0.241 C 
ATOM     20  N   SER A   4       1.864  32.028  71.856  0.00  0.00    -0.296 N 
ATOM     21  H   SER A   4       1.404  31.948  72.785  0.00  0.00    +0.150 HD
ATOM     22  O   ARG A   3       2.498  33.432  70.178  0.00  0.00    -0.273 OA
BRANCH  20  23
ATOM     23  CA  SER A   4       2.331  30.835  71.180  0.00  0.00    +0.166 C 
BRANCH  23  24
ATOM     24  C   SER A   4       1.366  29.656  71.011  0.00  0.00    +0.229 C 
ATOM     25  O   SER A   4       0.141  29.767  71.006  0.00  0.00    -0.286 OA
ENDBRANCH  23  24
BRANCH  23  26
ATOM     26  CB  SER A   4       3.683  30.422  71.735  0.00  0.00    +0.165 C 
BRANCH  26  27
ATOM     27  OG  SER A   4       3.393  29.809  72.944  0.00  0.00    -0.380 OA
ATOM     28  H   SER A   4       2.932  30.454  73.537  0.00  0.00    +0.211 HD
ENDBRANCH  26  27
ENDBRANCH  23  26
ENDBRANCH  20  23
ENDBRANCH   1  19
BRANCH   1  29
ATOM     29  CB  ARG A   3       0.780  35.367  71.407  0.00  0.00    +0.033 C 
BRANCH  29  30
ATOM     30  CG  ARG A   3      -0.695  35.227  71.668  0.00  0.00    +0.045 C 
BRANCH  30  31
ATOM     31  CD  ARG A   3      -1.525  35.891  70.581  0.00  0.00    +0.174 C 
BRANCH  31  32
ATOM     32  NE  ARG A   3      -2.942  35.728  70.852  0.00  0.00    -0.265 N 
ATOM     33  HE  ARG A   3      -3.440  36.501  71.338  0.00  0.00    +0.259 HD
ATOM     34  CZ  ARG A   3      -3.643  34.645  70.514  0.00  0.00    +0.342 C 
ATOM     35  NH2 ARG A   3      -4.939  34.601  70.830  0.00  0.00    -0.292 N 
ATOM     36 HH21 ARG A   3      -5.380  35.400  71.329  0.00  0.00    +0.255 HD
ATOM     37 HH22 ARG A   3      -5.508  33.768  70.578  0.00  0.00    +0.255 HD
ATOM     38  NH1 ARG A   3      -3.093  33.615  69.865  0.00  0.00    -0.292 N 
ATOM     39 HH11 ARG A   3      -3.672  32.787  69.618  0.00  0.00    +0.255 HD
ATOM     40 HH12 ARG A   3      -2.086  33.641  69.607  0.00  0.00    +0.255 HD
ENDBRANCH  31  32
ENDBRANCH  30  31
ENDBRANCH  29  30
ENDBRANCH   1  29
TORSDOF 16
REMARK  Name = ../refined-set-2016/1bxr/1bxr_pocket.pdb
REMARK  280 active torsions:
REMARK  status: ('A' for Active; 'I' for Inactive)
REMARK    1  A    between atoms: _1  and  _3
REMARK    2  A    between atoms: _3  and  _4
REMARK    3  A    between atoms: _6  and  _8
REMARK    4  A    between atoms: _8  and  _9
REMARK    5  A    between atoms: _8  and  _11
REMARK    6  A    between atoms: _11  and  _12
REMARK    7  A    between atoms: _12  and  _13
REMARK    8  A    between atoms: _18  and  _20
REMARK    9  A    between atoms: _20  and  _21
REMARK   10  A    between atoms: _20  and  _23
REMARK   11  A    between atoms: _23  and  _24
REMARK   12  A    between atoms: _30  and  _32
REMARK   13  A    between atoms: _32  and  _33
REMARK   14  A    between atoms: _32  and  _35
REMARK   15  A    between atoms: _35  and  _36
REMARK   16  A    between atoms: _36  and  _37
REMARK   17  A    between atoms: _42  and  _44
REMARK   18  A    between atoms: _44  and  _45
REMARK   19  A    between atoms: _48  and  _50
REMARK   20  A    between atoms: _50  and  _51
REMARK   21  A    between atoms: _50  and  _53
REMARK   22  A    between atoms: _53  and  _54
REMARK   23  A    between atoms: _54  and  _55
REMARK   24  A    between atoms: _58  and  _60
REMARK   25  A    between atoms: _60  and  _61
REMARK   26  A    between atoms: _60  and  _63
REMARK   27  A    between atoms: _63  and  _64
REMARK   28  A    between atoms: _65  and  _66
REMARK   29  A    between atoms: _75  and  _77
REMARK   30  A    between atoms: _77  and  _78
REMARK   31  A    between atoms: _77  and  _80
REMARK   32  A    between atoms: _80  and  _81
REMARK   33  A    between atoms: _84  and  _86
REMARK   34  A    between atoms: _86  and  _87
REMARK   35  A    between atoms: _90  and  _92
REMARK   36  A    between atoms: _92  and  _93
REMARK   37  A    between atoms: _92  and  _95
REMARK   38  A    between atoms: _95  and  _96
REMARK   39  A    between atoms: _96  and  _97
REMARK   40  A    between atoms: _97  and  _98
REMARK   41  A    between atoms: _107  and  _109
REMARK   42  A    between atoms: _109  and  _110
REMARK   43  A    between atoms: _109  and  _112
REMARK   44  A    between atoms: _112  and  _113
REMARK   45  A    between atoms: _116  and  _117
REMARK   46  A    between atoms: _122  and  _124
REMARK   47  A    between atoms: _124  and  _125
REMARK   48  A    between atoms: _124  and  _127
REMARK   49  A    between atoms: _129  and  _131
REMARK   50  A    between atoms: _131  and  _132
REMARK   51  A    between atoms: _131  and  _134
REMARK   52  A    between atoms: _134  and  _135
REMARK   53  A    between atoms: _138  and  _140
REMARK   54  A    between atoms: _140  and  _141
REMARK   55  A    between atoms: _140  and  _143
REMARK   56  A    between atoms: _143  and  _144
REMARK   57  A    between atoms: _147  and  _149
REMARK   58  A    between atoms: _149  and  _150
REMARK   59  A    between atoms: _149  and  _152
REMARK   60  A    between atoms: _152  and  _153
REMARK   61  A    between atoms: _153  and  _154
REMARK   62  A    between atoms: _154  and  _155
REMARK   63  A    between atoms: _165  and  _166
REMARK   64  A    between atoms: _171  and  _173
REMARK   65  A    between atoms: _173  and  _174
REMARK   66  A    between atoms: _173  and  _176
REMARK   67  A    between atoms: _176  and  _177
REMARK   68  A    between atoms: _179  and  _181
REMARK   69  A    between atoms: _181  and  _182
REMARK   70  A    between atoms: _181  and  _184
REMARK   71  A    between atoms: _184  and  _185
REMARK   72  A    between atoms: _191  and  _193
REMARK   73  A    between atoms: _193  and  _194
REMARK   74  A    between atoms: _193  and  _196
REMARK   75  A    between atoms: _196  and  _197
REMARK   76  A    between atoms: _200  and  _202
REMARK   77  A    between atoms: _202  and  _203
REMARK   78  A    between atoms: _202  and  _205
REMARK   79  A    between atoms: _205  and  _206
REMARK   80  A    between atoms: _206  and  _207
REMARK   81  A    between atoms: _209  and  _211
REMARK   82  A    between atoms: _211  and  _212
REMARK   83  A    between atoms: _214  and  _216
REMARK   84  A    between atoms: _216  and  _217
REMARK   85  A    between atoms: _219  and  _221
REMARK   86  A    between atoms: _221  and  _222
REMARK   87  A    between atoms: _221  and  _224
REMARK   88  A    between atoms: _224  and  _225
REMARK   89  A    between atoms: _227  and  _229
REMARK   90  A    between atoms: _229  and  _230
REMARK   91  A    between atoms: _232  and  _234
REMARK   92  A    between atoms: _234  and  _235
REMARK   93  A    between atoms: _237  and  _239
REMARK   94  A    between atoms: _239  and  _240
REMARK   95  A    between atoms: _242  and  _244
REMARK   96  A    between atoms: _244  and  _245
REMARK   97  A    between atoms: _244  and  _247
REMARK   98  A    between atoms: _247  and  _248
REMARK   99  A    between atoms: _251  and  _253
REMARK  100  A    between atoms: _253  and  _254
REMARK  101  A    between atoms: _253  and  _256
REMARK  102  A    between atoms: _256  and  _257
REMARK  103  A    between atoms: _262  and  _263
REMARK  104  A    between atoms: _265  and  _267
REMARK  105  A    between atoms: _267  and  _268
REMARK  106  A    between atoms: _267  and  _270
REMARK  107  A    between atoms: _270  and  _271
REMARK  108  A    between atoms: _274  and  _276
REMARK  109  A    between atoms: _276  and  _277
REMARK  110  A    between atoms: _276  and  _279
REMARK  111  A    between atoms: _279  and  _280
REMARK  112  A    between atoms: _283  and  _285
REMARK  113  A    between atoms: _285  and  _286
REMARK  114  A    between atoms: _285  and  _288
REMARK  115  A    between atoms: _288  and  _289
REMARK  116  A    between atoms: _292  and  _294
REMARK  117  A    between atoms: _294  and  _295
REMARK  118  A    between atoms: _294  and  _297
REMARK  119  A    between atoms: _297  and  _298
REMARK  120  A    between atoms: _298  and  _299
REMARK  121  A    between atoms: _302  and  _304
REMARK  122  A    between atoms: _304  and  _305
REMARK  123  A    between atoms: _304  and  _307
REMARK  124  A    between atoms: _307  and  _308
REMARK  125  A    between atoms: _310  and  _312
REMARK  126  A    between atoms: _312  and  _313
REMARK  127  A    between atoms: _312  and  _315
REMARK  128  A    between atoms: _315  and  _316
REMARK  129  A    between atoms: _319  and  _321
REMARK  130  A    between atoms: _321  and  _322
REMARK  131  A    between atoms: _321  and  _324
REMARK  132  A    between atoms: _324  and  _325
REMARK  133  A    between atoms: _328  and  _330
REMARK  134  A    between atoms: _330  and  _331
REMARK  135  A    between atoms: _333  and  _335
REMARK  136  A    between atoms: _335  and  _336
REMARK  137  A    between atoms: _335  and  _338
REMARK  138  A    between atoms: _338  and  _339
REMARK  139  A    between atoms: _349  and  _351
REMARK  140  A    between atoms: _351  and  _352
REMARK  141  A    between atoms: _351  and  _354
REMARK  142  A    between atoms: _354  and  _355
REMARK  143  A    between atoms: _355  and  _356
REMARK  144  A    between atoms: _356  and  _357
REMARK  145  A    between atoms: _357  and  _358
REMARK  146  A    between atoms: _362  and  _364
REMARK  147  A    between atoms: _364  and  _365
REMARK  148  A    between atoms: _364  and  _367
REMARK  149  A    between atoms: _367  and  _368
REMARK  150  A    between atoms: _368  and  _369
REMARK  151  A    between atoms: _372  and  _374
REMARK  152  A    between atoms: _374  and  _375
REMARK  153  A    between atoms: _374  and  _377
REMARK  154  A    between atoms: _377  and  _378
REMARK  155  A    between atoms: _383  and  _384
REMARK  156  A    between atoms: _386  and  _388
REMARK  157  A    between atoms: _388  and  _389
REMARK  158  A    between atoms: _388  and  _391
REMARK  159  A    between atoms: _391  and  _392
REMARK  160  A    between atoms: _392  and  _393
REMARK  161  A    between atoms: _396  and  _398
REMARK  162  A    between atoms: _398  and  _399
REMARK  163  A    between atoms: _398  and  _401
REMARK  164  A    between atoms: _401  and  _402
REMARK  165  A    between atoms: _407  and  _409
REMARK  166  A    between atoms: _409  and  _410
REMARK  167  A    between atoms: _409  and  _412
REMARK  168  A    between atoms: _412  and  _413
REMARK  169  A    between atoms: _416  and  _418
REMARK  170  A    between atoms: _418  and  _419
REMARK  171  A    between atoms: _422  and  _424
REMARK  172  A    between atoms: _424  and  _425
REMARK  173  A    between atoms: _424  and  _427
REMARK  174  A    between atoms: _427  and  _428
REMARK  175  A    between atoms: _428  and  _429
REMARK  176  A    between atoms: _431  and  _433
REMARK  177  A    between atoms: _433  and  _434
REMARK  178  A    between atoms: _436  and  _438
REMARK  179  A    between atoms: _438  and  _439
REMARK  180  A    between atoms: _438  and  _441
REMARK  181  A    between atoms: _441  and  _442
REMARK  182  A    between atoms: _445  and  _447
REMARK  183  A    between atoms: _447  and  _448
REMARK  184  A    between atoms: _447  and  _450
REMARK  185  A    between atoms: _450  and  _451
REMARK  186  A    between atoms: _456  and  _458
REMARK  187  A    between atoms: _458  and  _459
REMARK  188  A    between atoms: _458  and  _461
REMARK  189  A    between atoms: _461  and  _462
REMARK  190  A    between atoms: _465  and  _467
REMARK  191  A    between atoms: _467  and  _468
REMARK  192  A    between atoms: _470  and  _472
REMARK  193  A    between atoms: _472  and  _473
REMARK  194  A    between atoms: _472  and  _475
REMARK  195  A    between atoms: _475  and  _476
REMARK  196  A    between atoms: _479  and  _481
REMARK  197  A    between atoms: _481  and  _482
REMARK  198  A    between atoms: _481  and  _484
REMARK  199  A    between atoms: _484  and  _485
REMARK  200  A    between atoms: _487  and  _489
REMARK  201  A    between atoms: _489  and  _490
REMARK  202  A    between atoms: _489  and  _492
REMARK  203  A    between atoms: _492  and  _493
REMARK  204  A    between atoms: _498  and  _500
REMARK  205  A    between atoms: _500  and  _501
REMARK  206  A    between atoms: _500  and  _503
REMARK  207  A    between atoms: _503  and  _504
REMARK  208  A    between atoms: _504  and  _505
REMARK  209  A    between atoms: _510  and  _512
REMARK  210  A    between atoms: _512  and  _513
REMARK  211  A    between atoms: _512  and  _515
REMARK  212  A    between atoms: _515  and  _516
REMARK  213  A    between atoms: _522  and  _524
REMARK  214  A    between atoms: _524  and  _525
REMARK  215  A    between atoms: _528  and  _530
REMARK  216  A    between atoms: _530  and  _531
REMARK  217  A    between atoms: _530  and  _533
REMARK  218  A    between atoms: _533  and  _534
REMARK  219  A    between atoms: _537  and  _539
REMARK  220  A    between atoms: _539  and  _540
REMARK  221  A    between atoms: _539  and  _542
REMARK  222  A    between atoms: _545  and  _547
REMARK  223  A    between atoms: _547  and  _548
REMARK  224  A    between atoms: _547  and  _550
REMARK  225  A    between atoms: _550  and  _551
REMARK  226  A    between atoms: _554  and  _556
REMARK  227  A    between atoms: _566  and  _569
REMARK  228  A    between atoms: _569  and  _570
REMARK  229  A    between atoms: _570  and  _571
REMARK  230  A    between atoms: _575  and  _576
REMARK  231  A    between atoms: _579  and  _581
REMARK  232  A    between atoms: _585  and  _586
REMARK  233  A    between atoms: _591  and  _593
REMARK  234  A    between atoms: _593  and  _594
REMARK  235  A    between atoms: _593  and  _596
REMARK  236  A    between atoms: _596  and  _597
REMARK  237  A    between atoms: _597  and  _598
REMARK  238  A    between atoms: _598  and  _599
REMARK  239  A    between atoms: _608  and  _610
REMARK  240  A    between atoms: _610  and  _611
REMARK  241  A    between atoms: _610  and  _613
REMARK  242  A    between atoms: _616  and  _618
REMARK  243  A    between atoms: _618  and  _619
REMARK  244  A    between atoms: _618  and  _621
REMARK  245  A    between atoms: _621  and  _622
REMARK  246  A    between atoms: _624  and  _626
REMARK  247  A    between atoms: _626  and  _627
REMARK  248  A    between atoms: _626  and  _629
REMARK  249  A    between atoms: _629  and  _630
REMARK  250  A    between atoms: _630  and  _631
REMARK  251  A    between atoms: _631  and  _632
REMARK  252  A    between atoms: _641  and  _643
REMARK  253  A    between atoms: _643  and  _644
REMARK  254  A    between atoms: _643  and  _646
REMARK  255  A    between atoms: _646  and  _647
REMARK  256  A    between atoms: _649  and  _651
REMARK  257  A    between atoms: _651  and  _652
REMARK  258  A    between atoms: _651  and  _654
REMARK  259  A    between atoms: _654  and  _655
REMARK  260  A    between atoms: _658  and  _660
REMARK  261  A    between atoms: _660  and  _661
REMARK  262  A    between atoms: _660  and  _663
REMARK  263  A    between atoms: _663  and  _664
REMARK  264  A    between atoms: _667  and  _669
REMARK  265  A    between atoms: _669  and  _670
REMARK  266  A    between atoms: _669  and  _672
REMARK  267  A    between atoms: _672  and  _673
REMARK  268  A    between atoms: _673  and  _674
REMARK  269  A    between atoms: _679  and  _681
REMARK  270  A    between atoms: _681  and  _682
REMARK  271  A    between atoms: _681  and  _684
REMARK  272  A    between atoms: _684  and  _685
REMARK  273  A    between atoms: _685  and  _686
REMARK  274  A    between atoms: _688  and  _690
REMARK  275  A    between atoms: _690  and  _691
REMARK  276  A    between atoms: _690  and  _693
REMARK  277  A    between atoms: _693  and  _694
REMARK  278  A    between atoms: _694  and  _695
REMARK  279  A    between atoms: _695  and  _696
REMARK  280  A    between atoms: _696  and  _697
REMARK                            x       y       z     vdW  Elec       q    Type
REMARK                         _______ _______ _______ _____ _____    ______ ____
ROOT
ATOM      1  CA  PHE A   8      16.063  20.614  72.018  0.00  0.00    +0.153 C 
ENDROOT
BRANCH   1   2
ATOM      2  C   PHE A   8      17.008  20.970  70.905  0.00  0.00    +0.241 C 
ATOM      3  N   THR A   9      16.933  22.228  70.566  0.00  0.00    -0.295 N 
ATOM      4  H   THR A   9      16.223  22.836  71.022  0.00  0.00    +0.150 HD
ATOM      5  O   PHE A   8      17.783  20.151  70.392  0.00  0.00    -0.273 OA
BRANCH   3   6
ATOM      6  CA  THR A   9      17.806  22.789  69.581  0.00  0.00    +0.176 C 
BRANCH   6   7
ATOM      7  C   THR A   9      18.252  24.136  70.113  0.00  0.00    +0.243 C 
ATOM      8  O   THR A   9      17.617  24.706  71.025  0.00  0.00    -0.273 OA
ATOM      9  N   MET A  10      19.363  24.602  69.539  0.00  0.00    -0.297 N 
ATOM     10  H   MET A  10      19.840  24.015  68.825  0.00  0.00    +0.150 HD
BRANCH   9  11
ATOM     11  CA  MET A  10      19.929  25.887  69.868  0.00  0.00    +0.149 C 
BRANCH  11  12
ATOM     12  C   MET A  10      20.619  26.449  68.655  0.00  0.00    +0.241 C 
ATOM     13  N   GLY A  11      21.071  27.658  68.730  0.00  0.00    -0.295 N 
ATOM     14  H   GLY A  11      20.957  28.196  69.612  0.00  0.00    +0.150 HD
ATOM     15  O   MET A  10      20.738  25.781  67.643  0.00  0.00    -0.273 OA
BRANCH  13  16
ATOM     16  CA  GLY A  11      21.730  28.266  67.606  0.00  0.00    +0.176 C 
BRANCH  16  17
ATOM     17  C   GLY A  11      20.640  28.590  66.612  0.00  0.00    +0.243 C 
ATOM     18  N   GLY A  12      19.405  28.565  67.145  0.00  0.00    -0.295 N 
ATOM     19  H   GLY A  12      19.302  28.363  68.160  0.00  0.00    +0.150 HD
ATOM     20  O   GLY A  11      20.899  28.841  65.432  0.00  0.00    -0.273 OA
BRANCH  18  21
ATOM     21  CA  GLY A  12      18.206  28.810  66.354  0.00  0.00    +0.176 C 
BRANCH  21  22
ATOM     22  C   GLY A  12      18.047  27.735  65.279  0.00  0.00    +0.243 C 
ATOM     23  N   SER A  13      18.716  26.597  65.501  0.00  0.00    -0.295 N 
ATOM     24  H   SER A  13      19.254  26.525  66.388  0.00  0.00    +0.150 HD
ATOM     25  O   GLY A  12      17.374  27.935  64.276  0.00  0.00    -0.273 OA
BRANCH  23  26
ATOM     26  CA  SER A  13      18.752  25.449  64.601  0.00  0.00    +0.178 C 
BRANCH  26  27
ATOM     27  C   SER A  13      17.377  24.896  64.275  0.00  0.00    +0.243 C 
ATOM     28  O   SER A  13      16.620  24.449  65.138  0.00  0.00    -0.273 OA
ATOM     29  N   GLY A  14      17.040  24.912  62.998  0.00  0.00    -0.295 N 
ATOM     30  H   GLY A  14      17.700  25.279  62.283  0.00  0.00    +0.150 HD
BRANCH  29  31
ATOM     31  CA  GLY A  14      15.736  24.410  62.608  0.00  0.00    +0.176 C 
BRANCH  31  32
ATOM     32  C   GLY A  14      14.621  25.426  62.870  0.00  0.00    +0.243 C 
ATOM     33  N   GLY A  15      15.008  26.674  63.140  0.00  0.00    -0.295 N 
ATOM     34  H   GLY A  15      16.025  26.890  63.174  0.00  0.00    +0.150 HD
ATOM     35  O   GLY A  14      13.430  25.103  62.816  0.00  0.00    -0.273 OA
BRANCH  33  36
ATOM     36  CA  GLY A  15      14.051  27.743  63.389  0.00  0.00    +0.176 C 
BRANCH  36  37
ATOM     37  C   GLY A  15      14.128  28.835  62.317  0.00  0.00    +0.243 C 
ATOM     38  N   GLY A  16      13.378  29.926  62.537  0.00  0.00    -0.295 N 
ATOM     39  H   GLY A  16      12.799  29.964  63.400  0.00  0.00    +0.150 HD
ATOM     40  O   GLY A  15      14.844  28.698  61.317  0.00  0.00    -0.273 OA
BRANCH  38  41
ATOM     41  CA  GLY A  16      13.337  31.066  61.618  0.00  0.00    +0.176 C 
BRANCH  41  42
ATOM     42  C   GLY A  16      12.064  31.921  61.719  0.00  0.00    +0.243 C 
ATOM     43  O   GLY A  16      11.204  31.677  62.576  0.00  0.00    -0.273 OA
ATOM     44  N   ILE A  17      11.969  32.939  60.835  0.00  0.00    -0.298 N 
ATOM     45  H   ILE A  17      12.754  33.084  60.168  0.00  0.00    +0.150 HD
BRANCH  44  46
ATOM     46  CA  ILE A  17      10.824  33.851  60.762  0.00  0.00    +0.137 C 
BRANCH  46  47
ATOM     47  CB  ILE A  17      11.219  35.339  60.886  0.00  0.00    +0.026 C 
ATOM     48  CG2 ILE A  17       9.970  36.236  60.849  0.00  0.00    +0.002 C 
BRANCH  47  49
ATOM     49  CG1 ILE A  17      12.076  35.588  62.144  0.00  0.00    +0.002 C 
ATOM     50  CD1 ILE A  17      13.053  36.766  62.022  0.00  0.00    +0.000 C 
ENDBRANCH  47  49
ENDBRANCH  46  47
BRANCH  46  51
ATOM     51  C   ILE A  17       9.949  33.590  59.527  0.00  0.00    +0.227 C 
ATOM     52  O   ILE A  17      10.389  33.805  58.393  0.00  0.00    -0.286 OA
ENDBRANCH  46  51
ENDBRANCH  44  46
ENDBRANCH  41  42
ENDBRANCH  38  41
ENDBRANCH  36  37
ENDBRANCH  33  36
ENDBRANCH  31  32
ENDBRANCH  29  31
ENDBRANCH  26  27
BRANCH  26  53
ATOM     53  CB  SER A  13      19.639  24.337  65.158  0.00  0.00    +0.166 C 
BRANCH  53  54
ATOM     54  OG  SER A  13      21.004  24.669  64.978  0.00  0.00    -0.380 OA
ATOM     55  H   SER A  13      21.203  25.514  65.454  0.00  0.00    +0.211 HD
ENDBRANCH  53  54
ENDBRANCH  26  53
ENDBRANCH  23  26
ENDBRANCH  21  22
ENDBRANCH  18  21
ENDBRANCH  16  17
ENDBRANCH  13  16
ENDBRANCH  11  12
BRANCH  11  56
ATOM     56  CB  MET A  10      20.839  25.875  71.102  0.00  0.00    +0.041 C 
BRANCH  56  57
ATOM     57  CG  MET A  10      21.677  24.646  71.198  0.00  0.00    +0.060 C 
BRANCH  57  58
ATOM     58  SD  MET A  10      23.354  24.998  70.656  0.00  0.00    -0.139 S 
ATOM     59  CE  MET A  10      24.171  24.811  72.241  0.00  0.00    +0.069 C 
ENDBRANCH  57  58
ENDBRANCH  56  57
ENDBRANCH  11  56
ENDBRANCH   9  11
ENDBRANCH   6   7
BRANCH   6  60
ATOM     60  CB  THR A   9      17.152  22.975  68.202  0.00  0.00    +0.137 C 
ATOM     61  CG2 THR A   9      16.439  21.708  67.741  0.00  0.00    +0.034 C 
BRANCH  60  62
ATOM     62  OG1 THR A   9      16.267  24.083  68.244  0.00  0.00    -0.382 OA
ATOM     63  HG1 THR A   9      16.773  24.900  68.483  0.00  0.00    +0.210 HD
ENDBRANCH  60  62
ENDBRANCH   6  60
ENDBRANCH   3   6
ENDBRANCH   1   2
BRANCH   1  65
ATOM     64  C   SER A   7      13.936  21.309  71.144  0.00  0.00    +0.243 C 
ATOM     65  N   PHE A   8      14.841  21.396  72.109  0.00  0.00    -0.297 N 
ATOM     66  H   PHE A   8      14.678  22.019  72.925  0.00  0.00    +0.150 HD
ATOM     67  O   SER A   7      14.107  20.623  70.125  0.00  0.00    -0.273 OA
BRANCH  64  68
ATOM     68  CA  SER A   7      12.653  22.096  71.353  0.00  0.00    +0.178 C 
BRANCH  68  71
ATOM     69  C   PRO A   6      12.608  23.632  69.497  0.00  0.00    +0.241 C 
ATOM     70  O   PRO A   6      13.378  24.405  70.080  0.00  0.00    -0.273 OA
ATOM     71  N   SER A   7      12.168  22.520  70.055  0.00  0.00    -0.295 N 
ATOM     72  H   SER A   7      11.463  21.940  69.556  0.00  0.00    +0.150 HD
BRANCH  69  76
ATOM     73  C   ARG A   5      11.384  26.210  68.236  0.00  0.00    +0.244 C 
ATOM     74  O   ARG A   5      10.477  25.926  69.032  0.00  0.00    -0.273 OA
ATOM     75  N   PRO A   6      12.217  25.292  67.727  0.00  0.00    -0.272 N 
ATOM     76  CA  PRO A   6      12.072  23.905  68.104  0.00  0.00    +0.152 C 
ATOM     77  CB  PRO A   6      12.851  23.069  67.076  0.00  0.00    +0.031 C 
ATOM     78  CG  PRO A   6      13.490  24.039  66.096  0.00  0.00    +0.024 C 
ATOM     79  CD  PRO A   6      13.214  25.437  66.626  0.00  0.00    +0.094 C 
BRANCH  73  80
ATOM     80  CA  ARG A   5      11.584  27.645  67.757  0.00  0.00    +0.149 C 
BRANCH  80  82
ATOM     81  C   ILE A   4      10.741  28.880  65.779  0.00  0.00    +0.241 C 
ATOM     82  N   ARG A   5      10.542  28.046  66.812  0.00  0.00    -0.297 N 
ATOM     83  H   ARG A   5       9.586  27.660  66.949  0.00  0.00    +0.150 HD
ATOM     84  O   ILE A   4      11.827  29.430  65.553  0.00  0.00    -0.273 OA
BRANCH  81  85
ATOM     85  CA  ILE A   4       9.506  29.168  64.908  0.00  0.00    +0.149 C 
BRANCH  85  88
ATOM     86  C   ILE A   3       8.648  31.382  65.562  0.00  0.00    +0.241 C 
ATOM     87  O   ILE A   3       8.072  31.044  66.592  0.00  0.00    -0.273 OA
ATOM     88  N   ILE A   4       9.333  30.588  64.745  0.00  0.00    -0.297 N 
ATOM     89  H   ILE A   4       9.782  31.030  63.918  0.00  0.00    +0.150 HD
BRANCH  86  90
ATOM     90  CA  ILE A   3       8.684  32.819  65.114  0.00  0.00    +0.149 C 
BRANCH  90  92
ATOM     91  C   CYS A   2       7.015  33.690  63.471  0.00  0.00    +0.242 C 
ATOM     92  N   ILE A   3       7.385  33.386  64.745  0.00  0.00    -0.297 N 
ATOM     93  H   ILE A   3       6.700  33.568  65.506  0.00  0.00    +0.150 HD
ATOM     94  O   CYS A   2       7.707  33.529  62.464  0.00  0.00    -0.273 OA
BRANCH  91  95
ATOM     95  CA  CYS A   2       5.651  34.341  63.312  0.00  0.00    +0.160 C 
BRANCH  95  98
ATOM     96  C   PRO A   1       5.031  36.379  62.212  0.00  0.00    +0.249 C 
ATOM     97  O   PRO A   1       4.556  36.799  63.264  0.00  0.00    -0.273 OA
ATOM     98  N   CYS A   2       5.575  35.175  62.125  0.00  0.00    -0.296 N 
ATOM     99  H   CYS A   2       5.944  34.830  61.216  0.00  0.00    +0.150 HD
BRANCH  96 104
ATOM    100  N   PRO A   1       4.000  38.216  60.912  0.00  0.00    -0.257 NA
ATOM    101  CD  PRO A   1       4.544  39.594  60.988  0.00  0.00    +0.094 C 
ATOM    102  CG  PRO A   1       6.054  39.423  60.934  0.00  0.00    +0.018 C 
ATOM    103  CB  PRO A   1       6.359  37.927  60.802  0.00  0.00    +0.008 C 
ATOM    104  CA  PRO A   1       5.027  37.196  60.931  0.00  0.00    +0.201 C 
ENDBRANCH  96 104
ENDBRANCH  95  98
BRANCH  95 105
ATOM    105  CB  CYS A   2       4.429  33.441  63.606  0.00  0.00    +0.098 C 
ATOM    106  SG  CYS A   2       4.213  32.112  62.420  0.00  0.00    -0.080 S 
ENDBRANCH  95 105
ENDBRANCH  91  95
ENDBRANCH  90  92
BRANCH  90 107
ATOM    107  CB  ILE A   3       9.515  33.651  66.099  0.00  0.00    +0.027 C 
ATOM    108  CG2 ILE A   3      10.682  32.810  66.639  0.00  0.00    +0.002 C 
BRANCH 107 109
ATOM    109  CG1 ILE A   3      10.075  34.882  65.387  0.00  0.00    +0.002 C 
ATOM    110  CD1 ILE A   3       9.050  35.701  64.599  0.00  0.00    +0.000 C 
ENDBRANCH 107 109
ENDBRANCH  90 107
ENDBRANCH  86  90
ENDBRANCH  85  88
BRANCH  85 111
ATOM    111  CB  ILE A   4       9.555  28.487  63.529  0.00  0.00    +0.027 C 
ATOM    112  CG2 ILE A   4       9.694  26.984  63.718  0.00  0.00    +0.002 C 
BRANCH 111 113
ATOM    113  CG1 ILE A   4       8.264  28.765  62.749  0.00  0.00    +0.002 C 
ATOM    114  CD1 ILE A   4       8.483  29.329  61.343  0.00  0.00    +0.000 C 
ENDBRANCH 111 113
ENDBRANCH  85 111
ENDBRANCH  81  85
ENDBRANCH  80  82
BRANCH  80 115
ATOM    115  CB  ARG A   5      11.683  28.610  68.925  0.00  0.00    +0.033 C 
BRANCH 115 116
ATOM    116  CG  ARG A   5      12.035  30.014  68.461  0.00  0.00    +0.045 C 
BRANCH 116 117
ATOM    117  CD  ARG A   5      12.365  30.930  69.618  0.00  0.00    +0.174 C 
BRANCH 117 118
ATOM    118  NE  ARG A   5      11.190  31.282  70.393  0.00  0.00    -0.265 N 
ATOM    119  CZ  ARG A   5      11.141  31.277  71.730  0.00  0.00    +0.342 C 
ATOM    120  NH2 ARG A   5      12.178  30.929  72.494  0.00  0.00    -0.292 N 
ATOM    121 HH21 ARG A   5      12.088  30.942  73.530  0.00  0.00    +0.255 HD
ATOM    122 HH22 ARG A   5      13.076  30.645  72.053  0.00  0.00    +0.255 HD
ATOM    123  NH1 ARG A   5      10.016  31.645  72.333  0.00  0.00    -0.292 N 
ATOM    124 HH11 ARG A   5       9.959  31.647  73.371  0.00  0.00    +0.255 HD
ATOM    125 HH12 ARG A   5       9.192  31.931  71.767  0.00  0.00    +0.255 HD
ATOM    126  HE  ARG A   5      10.330  31.556  69.876  0.00  0.00    +0.259 HD
ENDBRANCH 117 118
ENDBRANCH 116 117
ENDBRANCH 115 116
ENDBRANCH  80 115
ENDBRANCH  73  80
ENDBRANCH  69  76
ENDBRANCH  68  71
BRANCH  68 127
ATOM    127  CB  SER A   7      11.671  21.189  72.105  0.00  0.00    +0.166 C 
BRANCH 127 128
ATOM    128  OG  SER A   7      10.490  21.869  72.446  0.00  0.00    -0.380 OA
ATOM    129  H   SER A   7       9.883  21.253  72.928  0.00  0.00    +0.211 HD
ENDBRANCH 127 128
ENDBRANCH  68 127
ENDBRANCH  64  68
ENDBRANCH   1  65
BRANCH   1 130
ATOM    130  CB  PHE A   8      15.691  19.138  71.932  0.00  0.00    +0.055 C 
BRANCH 130 131
ATOM    131  CG  PHE A   8      15.333  18.723  73.311  0.00  0.00    -0.020 A 
ATOM    132  CD2 PHE A   8      16.357  18.478  74.225  0.00  0.00    -0.004 A 
ATOM    133  CE2 PHE A   8      16.065  18.108  75.537  0.00  0.00    -0.000 A 
ATOM    134  CZ  PHE A   8      14.731  18.024  75.942  0.00  0.00    -0.000 A 
ATOM    135  CE1 PHE A   8      13.699  18.298  75.040  0.00  0.00    -0.000 A 
ATOM    136  CD1 PHE A   8      14.005  18.672  73.731  0.00  0.00    -0.004 A 
ENDBRANCH 130 131
ENDBRANCH   1 130
TORSDOF 54
REMARK  Name = ../refined-set-2016/1bxr/1bxr_pocket.pdb
REMARK  280 active torsions:
REMARK  status: ('A' for Active; 'I' for Inactive)
REMARK    1  A    between atoms: _1  and  _3
REMARK    2  A    between atoms: _3  and  _4
REMARK    3  A    between atoms: _6  and  _8
REMARK    4  A    between atoms: _8  and  _9
REMARK    5  A    between atoms: _8  and  _11
REMARK    6  A    between atoms: _11  and  _12
REMARK    7  A    between atoms: _12  and  _13
REMARK    8  A    between atoms: _18  and  _20
REMARK    9  A    between atoms: _20  and  _21
REMARK   10  A    between atoms: _20  and  _23
REMARK   11  A    between atoms: _23  and  _24
REMARK   12  A    between atoms: _30  and  _32
REMARK   13  A    between atoms: _32  and  _33
REMARK   14  A    between atoms: _32  and  _35
REMARK   15  A    between atoms: _35  and  _36
REMARK   16  A    between atoms: _36  and  _37
REMARK   17  A    between atoms: _42  and  _44
REMARK   18  A    between atoms: _44  and  _45
REMARK   19  A    between atoms: _48  and  _50
REMARK   20  A    between atoms: _50  and  _51
REMARK   21  A    between atoms: _50  and  _53
REMARK   22  A    between atoms: _53  and  _54
REMARK   23  A    between atoms: _54  and  _55
REMARK   24  A    between atoms: _58  and  _60
REMARK   25  A    between atoms: _60  and  _61
REMARK   26  A    between atoms: _60  and  _63
REMARK   27  A    between atoms: _63  and  _64
REMARK   28  A    between atoms: _65  and  _66
REMARK   29  A    between atoms: _75  and  _77
REMARK   30  A    between atoms: _77  and  _78
REMARK   31  A    between atoms: _77  and  _80
REMARK   32  A    between atoms: _80  and  _81
REMARK   33  A    between atoms: _84  and  _86
REMARK   34  A    between atoms: _86  and  _87
REMARK   35  A    between atoms: _90  and  _92
REMARK   36  A    between atoms: _92  and  _93
REMARK   37  A    between atoms: _92  and  _95
REMARK   38  A    between atoms: _95  and  _96
REMARK   39  A    between atoms: _96  and  _97
REMARK   40  A    between atoms: _97  and  _98
REMARK   41  A    between atoms: _107  and  _109
REMARK   42  A    between atoms: _109  and  _110
REMARK   43  A    between atoms: _109  and  _112
REMARK   44  A    between atoms: _112  and  _113
REMARK   45  A    between atoms: _116  and  _117
REMARK   46  A    between atoms: _122  and  _124
REMARK   47  A    between atoms: _124  and  _125
REMARK   48  A    between atoms: _124  and  _127
REMARK   49  A    between atoms: _129  and  _131
REMARK   50  A    between atoms: _131  and  _132
REMARK   51  A    between atoms: _131  and  _134
REMARK   52  A    between atoms: _134  and  _135
REMARK   53  A    between atoms: _138  and  _140
REMARK   54  A    between atoms: _140  and  _141
REMARK   55  A    between atoms: _140  and  _143
REMARK   56  A    between atoms: _143  and  _144
REMARK   57  A    between atoms: _147  and  _149
REMARK   58  A    between atoms: _149  and  _150
REMARK   59  A    between atoms: _149  and  _152
REMARK   60  A    between atoms: _152  and  _153
REMARK   61  A    between atoms: _153  and  _154
REMARK   62  A    between atoms: _154  and  _155
REMARK   63  A    between atoms: _165  and  _166
REMARK   64  A    between atoms: _171  and  _173
REMARK   65  A    between atoms: _173  and  _174
REMARK   66  A    between atoms: _173  and  _176
REMARK   67  A    between atoms: _176  and  _177
REMARK   68  A    between atoms: _179  and  _181
REMARK   69  A    between atoms: _181  and  _182
REMARK   70  A    between atoms: _181  and  _184
REMARK   71  A    between atoms: _184  and  _185
REMARK   72  A    between atoms: _191  and  _193
REMARK   73  A    between atoms: _193  and  _194
REMARK   74  A    between atoms: _193  and  _196
REMARK   75  A    between atoms: _196  and  _197
REMARK   76  A    between atoms: _200  and  _202
REMARK   77  A    between atoms: _202  and  _203
REMARK   78  A    between atoms: _202  and  _205
REMARK   79  A    between atoms: _205  and  _206
REMARK   80  A    between atoms: _206  and  _207
REMARK   81  A    between atoms: _209  and  _211
REMARK   82  A    between atoms: _211  and  _212
REMARK   83  A    between atoms: _214  and  _216
REMARK   84  A    between atoms: _216  and  _217
REMARK   85  A    between atoms: _219  and  _221
REMARK   86  A    between atoms: _221  and  _222
REMARK   87  A    between atoms: _221  and  _224
REMARK   88  A    between atoms: _224  and  _225
REMARK   89  A    between atoms: _227  and  _229
REMARK   90  A    between atoms: _229  and  _230
REMARK   91  A    between atoms: _232  and  _234
REMARK   92  A    between atoms: _234  and  _235
REMARK   93  A    between atoms: _237  and  _239
REMARK   94  A    between atoms: _239  and  _240
REMARK   95  A    between atoms: _242  and  _244
REMARK   96  A    between atoms: _244  and  _245
REMARK   97  A    between atoms: _244  and  _247
REMARK   98  A    between atoms: _247  and  _248
REMARK   99  A    between atoms: _251  and  _253
REMARK  100  A    between atoms: _253  and  _254
REMARK  101  A    between atoms: _253  and  _256
REMARK  102  A    between atoms: _256  and  _257
REMARK  103  A    between atoms: _262  and  _263
REMARK  104  A    between atoms: _265  and  _267
REMARK  105  A    between atoms: _267  and  _268
REMARK  106  A    between atoms: _267  and  _270
REMARK  107  A    between atoms: _270  and  _271
REMARK  108  A    between atoms: _274  and  _276
REMARK  109  A    between atoms: _276  and  _277
REMARK  110  A    between atoms: _276  and  _279
REMARK  111  A    between atoms: _279  and  _280
REMARK  112  A    between atoms: _283  and  _285
REMARK  113  A    between atoms: _285  and  _286
REMARK  114  A    between atoms: _285  and  _288
REMARK  115  A    between atoms: _288  and  _289
REMARK  116  A    between atoms: _292  and  _294
REMARK  117  A    between atoms: _294  and  _295
REMARK  118  A    between atoms: _294  and  _297
REMARK  119  A    between atoms: _297  and  _298
REMARK  120  A    between atoms: _298  and  _299
REMARK  121  A    between atoms: _302  and  _304
REMARK  122  A    between atoms: _304  and  _305
REMARK  123  A    between atoms: _304  and  _307
REMARK  124  A    between atoms: _307  and  _308
REMARK  125  A    between atoms: _310  and  _312
REMARK  126  A    between atoms: _312  and  _313
REMARK  127  A    between atoms: _312  and  _315
REMARK  128  A    between atoms: _315  and  _316
REMARK  129  A    between atoms: _319  and  _321
REMARK  130  A    between atoms: _321  and  _322
REMARK  131  A    between atoms: _321  and  _324
REMARK  132  A    between atoms: _324  and  _325
REMARK  133  A    between atoms: _328  and  _330
REMARK  134  A    between atoms: _330  and  _331
REMARK  135  A    between atoms: _333  and  _335
REMARK  136  A    between atoms: _335  and  _336
REMARK  137  A    between atoms: _335  and  _338
REMARK  138  A    between atoms: _338  and  _339
REMARK  139  A    between atoms: _349  and  _351
REMARK  140  A    between atoms: _351  and  _352
REMARK  141  A    between atoms: _351  and  _354
REMARK  142  A    between atoms: _354  and  _355
REMARK  143  A    between atoms: _355  and  _356
REMARK  144  A    between atoms: _356  and  _357
REMARK  145  A    between atoms: _357  and  _358
REMARK  146  A    between atoms: _362  and  _364
REMARK  147  A    between atoms: _364  and  _365
REMARK  148  A    between atoms: _364  and  _367
REMARK  149  A    between atoms: _367  and  _368
REMARK  150  A    between atoms: _368  and  _369
REMARK  151  A    between atoms: _372  and  _374
REMARK  152  A    between atoms: _374  and  _375
REMARK  153  A    between atoms: _374  and  _377
REMARK  154  A    between atoms: _377  and  _378
REMARK  155  A    between atoms: _383  and  _384
REMARK  156  A    between atoms: _386  and  _388
REMARK  157  A    between atoms: _388  and  _389
REMARK  158  A    between atoms: _388  and  _391
REMARK  159  A    between atoms: _391  and  _392
REMARK  160  A    between atoms: _392  and  _393
REMARK  161  A    between atoms: _396  and  _398
REMARK  162  A    between atoms: _398  and  _399
REMARK  163  A    between atoms: _398  and  _401
REMARK  164  A    between atoms: _401  and  _402
REMARK  165  A    between atoms: _407  and  _409
REMARK  166  A    between atoms: _409  and  _410
REMARK  167  A    between atoms: _409  and  _412
REMARK  168  A    between atoms: _412  and  _413
REMARK  169  A    between atoms: _416  and  _418
REMARK  170  A    between atoms: _418  and  _419
REMARK  171  A    between atoms: _422  and  _424
REMARK  172  A    between atoms: _424  and  _425
REMARK  173  A    between atoms: _424  and  _427
REMARK  174  A    between atoms: _427  and  _428
REMARK  175  A    between atoms: _428  and  _429
REMARK  176  A    between atoms: _431  and  _433
REMARK  177  A    between atoms: _433  and  _434
REMARK  178  A    between atoms: _436  and  _438
REMARK  179  A    between atoms: _438  and  _439
REMARK  180  A    between atoms: _438  and  _441
REMARK  181  A    between atoms: _441  and  _442
REMARK  182  A    between atoms: _445  and  _447
REMARK  183  A    between atoms: _447  and  _448
REMARK  184  A    between atoms: _447  and  _450
REMARK  185  A    between atoms: _450  and  _451
REMARK  186  A    between atoms: _456  and  _458
REMARK  187  A    between atoms: _458  and  _459
REMARK  188  A    between atoms: _458  and  _461
REMARK  189  A    between atoms: _461  and  _462
REMARK  190  A    between atoms: _465  and  _467
REMARK  191  A    between atoms: _467  and  _468
REMARK  192  A    between atoms: _470  and  _472
REMARK  193  A    between atoms: _472  and  _473
REMARK  194  A    between atoms: _472  and  _475
REMARK  195  A    between atoms: _475  and  _476
REMARK  196  A    between atoms: _479  and  _481
REMARK  197  A    between atoms: _481  and  _482
REMARK  198  A    between atoms: _481  and  _484
REMARK  199  A    between atoms: _484  and  _485
REMARK  200  A    between atoms: _487  and  _489
REMARK  201  A    between atoms: _489  and  _490
REMARK  202  A    between atoms: _489  and  _492
REMARK  203  A    between atoms: _492  and  _493
REMARK  204  A    between atoms: _498  and  _500
REMARK  205  A    between atoms: _500  and  _501
REMARK  206  A    between atoms: _500  and  _503
REMARK  207  A    between atoms: _503  and  _504
REMARK  208  A    between atoms: _504  and  _505
REMARK  209  A    between atoms: _510  and  _512
REMARK  210  A    between atoms: _512  and  _513
REMARK  211  A    between atoms: _512  and  _515
REMARK  212  A    between atoms: _515  and  _516
REMARK  213  A    between atoms: _522  and  _524
REMARK  214  A    between atoms: _524  and  _525
REMARK  215  A    between atoms: _528  and  _530
REMARK  216  A    between atoms: _530  and  _531
REMARK  217  A    between atoms: _530  and  _533
REMARK  218  A    between atoms: _533  and  _534
REMARK  219  A    between atoms: _537  and  _539
REMARK  220  A    between atoms: _539  and  _540
REMARK  221  A    between atoms: _539  and  _542
REMARK  222  A    between atoms: _545  and  _547
REMARK  223  A    between atoms: _547  and  _548
REMARK  224  A    between atoms: _547  and  _550
REMARK  225  A    between atoms: _550  and  _551
REMARK  226  A    between atoms: _554  and  _556
REMARK  227  A    between atoms: _566  and  _569
REMARK  228  A    between atoms: _569  and  _570
REMARK  229  A    between atoms: _570  and  _571
REMARK  230  A    between atoms: _575  and  _576
REMARK  231  A    between atoms: _579  and  _581
REMARK  232  A    between atoms: _585  and  _586
REMARK  233  A    between atoms: _591  and  _593
REMARK  234  A    between atoms: _593  and  _594
REMARK  235  A    between atoms: _593  and  _596
REMARK  236  A    between atoms: _596  and  _597
REMARK  237  A    between atoms: _597  and  _598
REMARK  238  A    between atoms: _598  and  _599
REMARK  239  A    between atoms: _608  and  _610
REMARK  240  A    between atoms: _610  and  _611
REMARK  241  A    between atoms: _610  and  _613
REMARK  242  A    between atoms: _616  and  _618
REMARK  243  A    between atoms: _618  and  _619
REMARK  244  A    between atoms: _618  and  _621
REMARK  245  A    between atoms: _621  and  _622
REMARK  246  A    between atoms: _624  and  _626
REMARK  247  A    between atoms: _626  and  _627
REMARK  248  A    between atoms: _626  and  _629
REMARK  249  A    between atoms: _629  and  _630
REMARK  250  A    between atoms: _630  and  _631
REMARK  251  A    between atoms: _631  and  _632
REMARK  252  A    between atoms: _641  and  _643
REMARK  253  A    between atoms: _643  and  _644
REMARK  254  A    between atoms: _643  and  _646
REMARK  255  A    between atoms: _646  and  _647
REMARK  256  A    between atoms: _649  and  _651
REMARK  257  A    between atoms: _651  and  _652
REMARK  258  A    between atoms: _651  and  _654
REMARK  259  A    between atoms: _654  and  _655
REMARK  260  A    between atoms: _658  and  _660
REMARK  261  A    between atoms: _660  and  _661
REMARK  262  A    between atoms: _660  and  _663
REMARK  263  A    between atoms: _663  and  _664
REMARK  264  A    between atoms: _667  and  _669
REMARK  265  A    between atoms: _669  and  _670
REMARK  266  A    between atoms: _669  and  _672
REMARK  267  A    between atoms: _672  and  _673
REMARK  268  A    between atoms: _673  and  _674
REMARK  269  A    between atoms: _679  and  _681
REMARK  270  A    between atoms: _681  and  _682
REMARK  271  A    between atoms: _681  and  _684
REMARK  272  A    between atoms: _684  and  _685
REMARK  273  A    between atoms: _685  and  _686
REMARK  274  A    between atoms: _688  and  _690
REMARK  275  A    between atoms: _690  and  _691
REMARK  276  A    between atoms: _690  and  _693
REMARK  277  A    between atoms: _693  and  _694
REMARK  278  A    between atoms: _694  and  _695
REMARK  279  A    between atoms: _695  and  _696
REMARK  280  A    between atoms: _696  and  _697
REMARK                            x       y       z     vdW  Elec       q    Type
REMARK                         _______ _______ _______ _____ _____    ______ ____
ROOT
ATOM      1  CG  TYR A   1       8.606  37.462  57.217  0.00  0.00    -0.020 A 
ATOM      2  CD2 TYR A   1       8.291  38.561  58.017  0.00  0.00    -0.001 A 
ATOM      3  CE2 TYR A   1       9.263  39.192  58.796  0.00  0.00    +0.036 A 
ATOM      4  CZ  TYR A   1      10.579  38.727  58.774  0.00  0.00    +0.134 A 
ATOM      5  CE1 TYR A   1      10.913  37.634  57.971  0.00  0.00    +0.036 A 
ATOM      6  CD1 TYR A   1       9.932  37.021  57.191  0.00  0.00    -0.001 A 
ENDROOT
BRANCH   4   7
ATOM      7  OH  TYR A   1      11.530  39.354  59.541  0.00  0.00    -0.506 OA
ATOM      8  HH  TYR A   1      12.245  39.707  58.954  0.00  0.00    +0.292 HD
ENDBRANCH   4   7
BRANCH   1   9
ATOM      9  CB  TYR A   1       7.553  36.840  56.325  0.00  0.00    +0.051 C 
BRANCH   9  10
ATOM     10  CA  TYR A   1       6.531  35.962  57.042  0.00  0.00    +0.137 C 
BRANCH  10  11
ATOM     11  N   TYR A   1       7.169  34.719  57.412  0.00  0.00    -0.239 NA
ATOM     12  H   TYR A   1       7.847  34.293  56.749  0.00  0.00    +0.142 HD
ENDBRANCH  10  11
BRANCH  10  13
ATOM     13  C   TYR A   1       5.306  35.724  56.167  0.00  0.00    +0.224 C 
ATOM     14  O   TYR A   1       4.470  36.623  55.984  0.00  0.00    -0.287 OA
ENDBRANCH  10  13
ENDBRANCH   9  10
ENDBRANCH   1   9
TORSDOF 5
REMARK  Name = ../refined-set-2016/1bxr/1bxr_pocket.pdb
REMARK  280 active torsions:
REMARK  status: ('A' for Active; 'I' for Inactive)
REMARK    1  A    between atoms: _1  and  _3
REMARK    2  A    between atoms: _3  and  _4
REMARK    3  A    between atoms: _6  and  _8
REMARK    4  A    between atoms: _8  and  _9
REMARK    5  A    between atoms: _8  and  _11
REMARK    6  A    between atoms: _11  and  _12
REMARK    7  A    between atoms: _12  and  _13
REMARK    8  A    between atoms: _18  and  _20
REMARK    9  A    between atoms: _20  and  _21
REMARK   10  A    between atoms: _20  and  _23
REMARK   11  A    between atoms: _23  and  _24
REMARK   12  A    between atoms: _30  and  _32
REMARK   13  A    between atoms: _32  and  _33
REMARK   14  A    between atoms: _32  and  _35
REMARK   15  A    between atoms: _35  and  _36
REMARK   16  A    between atoms: _36  and  _37
REMARK   17  A    between atoms: _42  and  _44
REMARK   18  A    between atoms: _44  and  _45
REMARK   19  A    between atoms: _48  and  _50
REMARK   20  A    between atoms: _50  and  _51
REMARK   21  A    between atoms: _50  and  _53
REMARK   22  A    between atoms: _53  and  _54
REMARK   23  A    between atoms: _54  and  _55
REMARK   24  A    between atoms: _58  and  _60
REMARK   25  A    between atoms: _60  and  _61
REMARK   26  A    between atoms: _60  and  _63
REMARK   27  A    between atoms: _63  and  _64
REMARK   28  A    between atoms: _65  and  _66
REMARK   29  A    between atoms: _75  and  _77
REMARK   30  A    between atoms: _77  and  _78
REMARK   31  A    between atoms: _77  and  _80
REMARK   32  A    between atoms: _80  and  _81
REMARK   33  A    between atoms: _84  and  _86
REMARK   34  A    between atoms: _86  and  _87
REMARK   35  A    between atoms: _90  and  _92
REMARK   36  A    between atoms: _92  and  _93
REMARK   37  A    between atoms: _92  and  _95
REMARK   38  A    between atoms: _95  and  _96
REMARK   39  A    between atoms: _96  and  _97
REMARK   40  A    between atoms: _97  and  _98
REMARK   41  A    between atoms: _107  and  _109
REMARK   42  A    between atoms: _109  and  _110
REMARK   43  A    between atoms: _109  and  _112
REMARK   44  A    between atoms: _112  and  _113
REMARK   45  A    between atoms: _116  and  _117
REMARK   46  A    between atoms: _122  and  _124
REMARK   47  A    between atoms: _124  and  _125
REMARK   48  A    between atoms: _124  and  _127
REMARK   49  A    between atoms: _129  and  _131
REMARK   50  A    between atoms: _131  and  _132
REMARK   51  A    between atoms: _131  and  _134
REMARK   52  A    between atoms: _134  and  _135
REMARK   53  A    between atoms: _138  and  _140
REMARK   54  A    between atoms: _140  and  _141
REMARK   55  A    between atoms: _140  and  _143
REMARK   56  A    between atoms: _143  and  _144
REMARK   57  A    between atoms: _147  and  _149
REMARK   58  A    between atoms: _149  and  _150
REMARK   59  A    between atoms: _149  and  _152
REMARK   60  A    between atoms: _152  and  _153
REMARK   61  A    between atoms: _153  and  _154
REMARK   62  A    between atoms: _154  and  _155
REMARK   63  A    between atoms: _165  and  _166
REMARK   64  A    between atoms: _171  and  _173
REMARK   65  A    between atoms: _173  and  _174
REMARK   66  A    between atoms: _173  and  _176
REMARK   67  A    between atoms: _176  and  _177
REMARK   68  A    between atoms: _179  and  _181
REMARK   69  A    between atoms: _181  and  _182
REMARK   70  A    between atoms: _181  and  _184
REMARK   71  A    between atoms: _184  and  _185
REMARK   72  A    between atoms: _191  and  _193
REMARK   73  A    between atoms: _193  and  _194
REMARK   74  A    between atoms: _193  and  _196
REMARK   75  A    between atoms: _196  and  _197
REMARK   76  A    between atoms: _200  and  _202
REMARK   77  A    between atoms: _202  and  _203
REMARK   78  A    between atoms: _202  and  _205
REMARK   79  A    between atoms: _205  and  _206
REMARK   80  A    between atoms: _206  and  _207
REMARK   81  A    between atoms: _209  and  _211
REMARK   82  A    between atoms: _211  and  _212
REMARK   83  A    between atoms: _214  and  _216
REMARK   84  A    between atoms: _216  and  _217
REMARK   85  A    between atoms: _219  and  _221
REMARK   86  A    between atoms: _221  and  _222
REMARK   87  A    between atoms: _221  and  _224
REMARK   88  A    between atoms: _224  and  _225
REMARK   89  A    between atoms: _227  and  _229
REMARK   90  A    between atoms: _229  and  _230
REMARK   91  A    between atoms: _232  and  _234
REMARK   92  A    between atoms: _234  and  _235
REMARK   93  A    between atoms: _237  and  _239
REMARK   94  A    between atoms: _239  and  _240
REMARK   95  A    between atoms: _242  and  _244
REMARK   96  A    between atoms: _244  and  _245
REMARK   97  A    between atoms: _244  and  _247
REMARK   98  A    between atoms: _247  and  _248
REMARK   99  A    between atoms: _251  and  _253
REMARK  100  A    between atoms: _253  and  _254
REMARK  101  A    between atoms: _253  and  _256
REMARK  102  A    between atoms: _256  and  _257
REMARK  103  A    between atoms: _262  and  _263
REMARK  104  A    between atoms: _265  and  _267
REMARK  105  A    between atoms: _267  and  _268
REMARK  106  A    between atoms: _267  and  _270
REMARK  107  A    between atoms: _270  and  _271
REMARK  108  A    between atoms: _274  and  _276
REMARK  109  A    between atoms: _276  and  _277
REMARK  110  A    between atoms: _276  and  _279
REMARK  111  A    between atoms: _279  and  _280
REMARK  112  A    between atoms: _283  and  _285
REMARK  113  A    between atoms: _285  and  _286
REMARK  114  A    between atoms: _285  and  _288
REMARK  115  A    between atoms: _288  and  _289
REMARK  116  A    between atoms: _292  and  _294
REMARK  117  A    between atoms: _294  and  _295
REMARK  118  A    between atoms: _294  and  _297
REMARK  119  A    between atoms: _297  and  _298
REMARK  120  A    between atoms: _298  and  _299
REMARK  121  A    between atoms: _302  and  _304
REMARK  122  A    between atoms: _304  and  _305
REMARK  123  A    between atoms: _304  and  _307
REMARK  124  A    between atoms: _307  and  _308
REMARK  125  A    between atoms: _310  and  _312
REMARK  126  A    between atoms: _312  and  _313
REMARK  127  A    between atoms: _312  and  _315
REMARK  128  A    between atoms: _315  and  _316
REMARK  129  A    between atoms: _319  and  _321
REMARK  130  A    between atoms: _321  and  _322
REMARK  131  A    between atoms: _321  and  _324
REMARK  132  A    between atoms: _324  and  _325
REMARK  133  A    between atoms: _328  and  _330
REMARK  134  A    between atoms: _330  and  _331
REMARK  135  A    between atoms: _333  and  _335
REMARK  136  A    between atoms: _335  and  _336
REMARK  137  A    between atoms: _335  and  _338
REMARK  138  A    between atoms: _338  and  _339
REMARK  139  A    between atoms: _349  and  _351
REMARK  140  A    between atoms: _351  and  _352
REMARK  141  A    between atoms: _351  and  _354
REMARK  142  A    between atoms: _354  and  _355
REMARK  143  A    between atoms: _355  and  _356
REMARK  144  A    between atoms: _356  and  _357
REMARK  145  A    between atoms: _357  and  _358
REMARK  146  A    between atoms: _362  and  _364
REMARK  147  A    between atoms: _364  and  _365
REMARK  148  A    between atoms: _364  and  _367
REMARK  149  A    between atoms: _367  and  _368
REMARK  150  A    between atoms: _368  and  _369
REMARK  151  A    between atoms: _372  and  _374
REMARK  152  A    between atoms: _374  and  _375
REMARK  153  A    between atoms: _374  and  _377
REMARK  154  A    between atoms: _377  and  _378
REMARK  155  A    between atoms: _383  and  _384
REMARK  156  A    between atoms: _386  and  _388
REMARK  157  A    between atoms: _388  and  _389
REMARK  158  A    between atoms: _388  and  _391
REMARK  159  A    between atoms: _391  and  _392
REMARK  160  A    between atoms: _392  and  _393
REMARK  161  A    between atoms: _396  and  _398
REMARK  162  A    between atoms: _398  and  _399
REMARK  163  A    between atoms: _398  and  _401
REMARK  164  A    between atoms: _401  and  _402
REMARK  165  A    between atoms: _407  and  _409
REMARK  166  A    between atoms: _409  and  _410
REMARK  167  A    between atoms: _409  and  _412
REMARK  168  A    between atoms: _412  and  _413
REMARK  169  A    between atoms: _416  and  _418
REMARK  170  A    between atoms: _418  and  _419
REMARK  171  A    between atoms: _422  and  _424
REMARK  172  A    between atoms: _424  and  _425
REMARK  173  A    between atoms: _424  and  _427
REMARK  174  A    between atoms: _427  and  _428
REMARK  175  A    between atoms: _428  and  _429
REMARK  176  A    between atoms: _431  and  _433
REMARK  177  A    between atoms: _433  and  _434
REMARK  178  A    between atoms: _436  and  _438
REMARK  179  A    between atoms: _438  and  _439
REMARK  180  A    between atoms: _438  and  _441
REMARK  181  A    between atoms: _441  and  _442
REMARK  182  A    between atoms: _445  and  _447
REMARK  183  A    between atoms: _447  and  _448
REMARK  184  A    between atoms: _447  and  _450
REMARK  185  A    between atoms: _450  and  _451
REMARK  186  A    between atoms: _456  and  _458
REMARK  187  A    between atoms: _458  and  _459
REMARK  188  A    between atoms: _458  and  _461
REMARK  189  A    between atoms: _461  and  _462
REMARK  190  A    between atoms: _465  and  _467
REMARK  191  A    between atoms: _467  and  _468
REMARK  192  A    between atoms: _470  and  _472
REMARK  193  A    between atoms: _472  and  _473
REMARK  194  A    between atoms: _472  and  _475
REMARK  195  A    between atoms: _475  and  _476
REMARK  196  A    between atoms: _479  and  _481
REMARK  197  A    between atoms: _481  and  _482
REMARK  198  A    between atoms: _481  and  _484
REMARK  199  A    between atoms: _484  and  _485
REMARK  200  A    between atoms: _487  and  _489
REMARK  201  A    between atoms: _489  and  _490
REMARK  202  A    between atoms: _489  and  _492
REMARK  203  A    between atoms: _492  and  _493
REMARK  204  A    between atoms: _498  and  _500
REMARK  205  A    between atoms: _500  and  _501
REMARK  206  A    between atoms: _500  and  _503
REMARK  207  A    between atoms: _503  and  _504
REMARK  208  A    between atoms: _504  and  _505
REMARK  209  A    between atoms: _510  and  _512
REMARK  210  A    between atoms: _512  and  _513
REMARK  211  A    between atoms: _512  and  _515
REMARK  212  A    between atoms: _515  and  _516
REMARK  213  A    between atoms: _522  and  _524
REMARK  214  A    between atoms: _524  and  _525
REMARK  215  A    between atoms: _528  and  _530
REMARK  216  A    between atoms: _530  and  _531
REMARK  217  A    between atoms: _530  and  _533
REMARK  218  A    between atoms: _533  and  _534
REMARK  219  A    between atoms: _537  and  _539
REMARK  220  A    between atoms: _539  and  _540
REMARK  221  A    between atoms: _539  and  _542
REMARK  222  A    between atoms: _545  and  _547
REMARK  223  A    between atoms: _547  and  _548
REMARK  224  A    between atoms: _547  and  _550
REMARK  225  A    between atoms: _550  and  _551
REMARK  226  A    between atoms: _554  and  _556
REMARK  227  A    between atoms: _566  and  _569
REMARK  228  A    between atoms: _569  and  _570
REMARK  229  A    between atoms: _570  and  _571
REMARK  230  A    between atoms: _575  and  _576
REMARK  231  A    between atoms: _579  and  _581
REMARK  232  A    between atoms: _585  and  _586
REMARK  233  A    between atoms: _591  and  _593
REMARK  234  A    between atoms: _593  and  _594
REMARK  235  A    between atoms: _593  and  _596
REMARK  236  A    between atoms: _596  and  _597
REMARK  237  A    between atoms: _597  and  _598
REMARK  238  A    between atoms: _598  and  _599
REMARK  239  A    between atoms: _608  and  _610
REMARK  240  A    between atoms: _610  and  _611
REMARK  241  A    between atoms: _610  and  _613
REMARK  242  A    between atoms: _616  and  _618
REMARK  243  A    between atoms: _618  and  _619
REMARK  244  A    between atoms: _618  and  _621
REMARK  245  A    between atoms: _621  and  _622
REMARK  246  A    between atoms: _624  and  _626
REMARK  247  A    between atoms: _626  and  _627
REMARK  248  A    between atoms: _626  and  _629
REMARK  249  A    between atoms: _629  and  _630
REMARK  250  A    between atoms: _630  and  _631
REMARK  251  A    between atoms: _631  and  _632
REMARK  252  A    between atoms: _641  and  _643
REMARK  253  A    between atoms: _643  and  _644
REMARK  254  A    between atoms: _643  and  _646
REMARK  255  A    between atoms: _646  and  _647
REMARK  256  A    between atoms: _649  and  _651
REMARK  257  A    between atoms: _651  and  _652
REMARK  258  A    between atoms: _651  and  _654
REMARK  259  A    between atoms: _654  and  _655
REMARK  260  A    between atoms: _658  and  _660
REMARK  261  A    between atoms: _660  and  _661
REMARK  262  A    between atoms: _660  and  _663
REMARK  263  A    between atoms: _663  and  _664
REMARK  264  A    between atoms: _667  and  _669
REMARK  265  A    between atoms: _669  and  _670
REMARK  266  A    between atoms: _669  and  _672
REMARK  267  A    between atoms: _672  and  _673
REMARK  268  A    between atoms: _673  and  _674
REMARK  269  A    between atoms: _679  and  _681
REMARK  270  A    between atoms: _681  and  _682
REMARK  271  A    between atoms: _681  and  _684
REMARK  272  A    between atoms: _684  and  _685
REMARK  273  A    between atoms: _685  and  _686
REMARK  274  A    between atoms: _688  and  _690
REMARK  275  A    between atoms: _690  and  _691
REMARK  276  A    between atoms: _690  and  _693
REMARK  277  A    between atoms: _693  and  _694
REMARK  278  A    between atoms: _694  and  _695
REMARK  279  A    between atoms: _695  and  _696
REMARK  280  A    between atoms: _696  and  _697
REMARK                            x       y       z     vdW  Elec       q    Type
REMARK                         _______ _______ _______ _____ _____    ______ ____
ROOT
ATOM      1  CA  GLY A   8      12.020  45.163  66.973  0.00  0.00    +0.176 C 
ENDROOT
BRANCH   1   3
ATOM      2  C   ILE A   7      10.442  43.387  66.408  0.00  0.00    +0.241 C 
ATOM      3  N   GLY A   8      11.681  43.778  66.722  0.00  0.00    -0.295 N 
ATOM      4  H   GLY A   8      12.430  43.060  66.789  0.00  0.00    +0.150 HD
ATOM      5  O   ILE A   7       9.479  44.144  66.286  0.00  0.00    -0.273 OA
BRANCH   2   6
ATOM      6  CA  ILE A   7      10.285  41.902  66.166  0.00  0.00    +0.149 C 
BRANCH   6   9
ATOM      7  C   LEU A   6       9.215  41.457  68.260  0.00  0.00    +0.241 C 
ATOM      8  O   LEU A   6      10.087  42.087  68.860  0.00  0.00    -0.273 OA
ATOM      9  N   ILE A   7       9.233  41.310  66.937  0.00  0.00    -0.297 N 
ATOM     10  H   ILE A   7       8.484  40.766  66.464  0.00  0.00    +0.150 HD
BRANCH   7  11
ATOM     11  CA  LEU A   6       8.042  40.768  68.976  0.00  0.00    +0.149 C 
BRANCH  11  13
ATOM     12  C   SER A   5       6.252  39.842  67.508  0.00  0.00    +0.243 C 
ATOM     13  N   LEU A   6       7.473  39.784  68.059  0.00  0.00    -0.297 N 
ATOM     14  H   LEU A   6       8.067  38.967  67.812  0.00  0.00    +0.150 HD
ATOM     15  O   SER A   5       5.435  40.728  67.756  0.00  0.00    -0.273 OA
BRANCH  12  16
ATOM     16  CA  SER A   5       5.950  38.724  66.493  0.00  0.00    +0.178 C 
BRANCH  16  19
ATOM     17  C   GLU A   4       4.850  36.741  67.249  0.00  0.00    +0.241 C 
ATOM     18  O   GLU A   4       5.943  36.411  67.674  0.00  0.00    -0.273 OA
ATOM     19  N   SER A   5       4.726  37.926  66.649  0.00  0.00    -0.295 N 
ATOM     20  H   SER A   5       3.806  38.269  66.307  0.00  0.00    +0.150 HD
BRANCH  17  21
ATOM     21  CA  GLU A   4       3.653  35.801  67.469  0.00  0.00    +0.149 C 
BRANCH  21  23
ATOM     22  C   ASP A   3       4.858  33.589  67.629  0.00  0.00    +0.241 C 
ATOM     23  N   GLU A   4       4.195  34.635  68.199  0.00  0.00    -0.297 N 
ATOM     24  H   GLU A   4       4.060  34.611  69.230  0.00  0.00    +0.150 HD
ATOM     25  O   ASP A   3       4.994  33.450  66.414  0.00  0.00    -0.273 OA
BRANCH  22  26
ATOM     26  CA  ASP A   3       5.431  32.529  68.580  0.00  0.00    +0.160 C 
BRANCH  26  29
ATOM     27  C   ILE A   2       5.095  30.126  68.214  0.00  0.00    +0.241 C 
ATOM     28  O   ILE A   2       4.180  30.061  68.997  0.00  0.00    -0.273 OA
ATOM     29  N   ASP A   3       5.747  31.265  67.918  0.00  0.00    -0.297 N 
ATOM     30  H   ASP A   3       6.497  31.245  67.198  0.00  0.00    +0.150 HD
BRANCH  27  31
ATOM     31  CA  ILE A   2       5.495  28.859  67.507  0.00  0.00    +0.148 C 
BRANCH  31  34
ATOM     32  C   LEU A   1       7.040  27.557  68.853  0.00  0.00    +0.238 C 
ATOM     33  O   LEU A   1       7.981  28.285  68.535  0.00  0.00    -0.274 OA
ATOM     34  N   ILE A   2       5.797  27.768  68.421  0.00  0.00    -0.297 N 
ATOM     35  H   ILE A   2       5.031  27.143  68.742  0.00  0.00    +0.150 HD
BRANCH  32  36
ATOM     36  CA  LEU A   1       7.271  26.350  69.758  0.00  0.00    +0.145 C 
BRANCH  36  37
ATOM     37  N   LEU A   1       7.973  25.347  68.968  0.00  0.00    -0.238 NA
ATOM     38  H   LEU A   1       8.935  25.560  68.635  0.00  0.00    +0.142 HD
ENDBRANCH  36  37
BRANCH  36  39
ATOM     39  CB  LEU A   1       7.941  26.835  71.055  0.00  0.00    +0.026 C 
BRANCH  39  40
ATOM     40  CG  LEU A   1       7.254  28.141  71.461  0.00  0.00    +0.002 C 
ATOM     41  CD2 LEU A   1       8.134  29.006  72.322  0.00  0.00    +0.000 C 
ATOM     42  CD1 LEU A   1       5.972  27.843  72.209  0.00  0.00    +0.000 C 
ENDBRANCH  39  40
ENDBRANCH  36  39
ENDBRANCH  32  36
ENDBRANCH  31  34
BRANCH  31  43
ATOM     43  CB  ILE A   2       4.454  28.470  66.461  0.00  0.00    +0.027 C 
ATOM     44  CG2 ILE A   2       3.950  29.710  65.719  0.00  0.00    +0.002 C 
BRANCH  43  45
ATOM     45  CG1 ILE A   2       5.078  27.471  65.488  0.00  0.00    +0.002 C 
ATOM     46  CD1 ILE A   2       4.456  26.081  65.534  0.00  0.00    +0.000 C 
ENDBRANCH  43  45
ENDBRANCH  31  43
ENDBRANCH  27  31
ENDBRANCH  26  29
BRANCH  26  47
ATOM     47  CB  ASP A   3       6.648  33.063  69.395  0.00  0.00    +0.143 C 
BRANCH  47  48
ATOM     48  CG  ASP A   3       7.207  32.097  70.409  0.00  0.00    +0.367 C 
ATOM     49  OD2 ASP A   3       6.625  31.777  71.435  0.00  0.00    -0.246 OA
ATOM     50  OD1 ASP A   3       8.380  31.637  70.058  0.00  0.00    -0.246 OA
ENDBRANCH  47  48
ENDBRANCH  26  47
ENDBRANCH  22  26
ENDBRANCH  21  23
BRANCH  21  51
ATOM     51  CB  GLU A   4       2.603  36.563  68.312  0.00  0.00    +0.041 C 
BRANCH  51  52
ATOM     52  CG  GLU A   4       3.173  36.953  69.703  0.00  0.00    +0.116 C 
BRANCH  52  53
ATOM     53  CD  GLU A   4       2.356  37.930  70.516  0.00  0.00    +0.365 C 
ATOM     54  OE2 GLU A   4       2.411  37.996  71.734  0.00  0.00    -0.246 OA
ATOM     55  OE1 GLU A   4       1.592  38.704  69.790  0.00  0.00    -0.246 OA
ENDBRANCH  52  53
ENDBRANCH  51  52
ENDBRANCH  21  51
ENDBRANCH  17  21
ENDBRANCH  16  19
BRANCH  16  56
ATOM     56  CB  SER A   5       6.215  39.228  65.086  0.00  0.00    +0.166 C 
BRANCH  56  57
ATOM     57  OG  SER A   5       7.317  40.113  65.128  0.00  0.00    -0.380 OA
ATOM     58  H   SER A   5       7.502  40.451  64.216  0.00  0.00    +0.211 HD
ENDBRANCH  56  57
ENDBRANCH  16  56
ENDBRANCH  12  16
ENDBRANCH  11  13
BRANCH  11  59
ATOM     59  CB  LEU A   6       8.479  40.168  70.324  0.00  0.00    +0.029 C 
BRANCH  59  60
ATOM     60  CG  LEU A   6       7.312  39.508  71.037  0.00  0.00    +0.002 C 
ATOM     61  CD2 LEU A   6       7.693  39.138  72.457  0.00  0.00    +0.000 C 
ATOM     62  CD1 LEU A   6       6.139  40.467  71.038  0.00  0.00    +0.000 C 
ENDBRANCH  59  60
ENDBRANCH  11  59
ENDBRANCH   7  11
ENDBRANCH   6   9
BRANCH   6  63
ATOM     63  CB  ILE A   7      10.134  41.638  64.697  0.00  0.00    +0.027 C 
ATOM     64  CG2 ILE A   7      11.203  42.440  63.938  0.00  0.00    +0.002 C 
BRANCH  63  65
ATOM     65  CG1 ILE A   7      10.351  40.151  64.485  0.00  0.00    +0.002 C 
ATOM     66  CD1 ILE A   7      10.057  39.722  63.062  0.00  0.00    +0.000 C 
ENDBRANCH  63  65
ENDBRANCH   6  63
ENDBRANCH   2   6
ENDBRANCH   1   3
BRANCH   1  67
ATOM     67  C   GLY A   8      12.034  45.525  68.442  0.00  0.00    +0.243 C 
ATOM     68  N   TRP A   9      11.587  44.649  69.337  0.00  0.00    -0.297 N 
ATOM     69  H   TRP A   9      11.191  43.740  69.023  0.00  0.00    +0.150 HD
ATOM     70  O   GLY A   8      12.441  46.616  68.772  0.00  0.00    -0.273 OA
BRANCH  68  71
ATOM     71  CA  TRP A   9      11.653  44.966  70.762  0.00  0.00    +0.153 C 
BRANCH  71  72
ATOM     72  C   TRP A   9      13.105  44.875  71.187  0.00  0.00    +0.241 C 
ATOM     73  N   LYS A  10      13.408  45.349  72.379  0.00  0.00    -0.297 N 
ATOM     74  H   LYS A  10      12.690  45.778  72.997  0.00  0.00    +0.150 HD
ATOM     75  O   TRP A   9      13.954  44.368  70.459  0.00  0.00    -0.273 OA
BRANCH  73  76
ATOM     76  CA  LYS A  10      14.787  45.240  72.778  0.00  0.00    +0.149 C 
BRANCH  76  77
ATOM     77  C   LYS A  10      15.017  43.820  73.211  0.00  0.00    +0.241 C 
ATOM     78  O   LYS A  10      14.062  43.180  73.634  0.00  0.00    -0.273 OA
ATOM     79  N   GLU A  11      16.263  43.362  73.107  0.00  0.00    -0.297 N 
ATOM     80  H   GLU A  11      17.001  43.994  72.735  0.00  0.00    +0.150 HD
BRANCH  79  81
ATOM     81  CA  GLU A  11      16.627  42.013  73.494  0.00  0.00    +0.149 C 
BRANCH  81  82
ATOM     82  C   GLU A  11      17.708  42.014  74.598  0.00  0.00    +0.241 C 
ATOM     83  N   TYR A  12      17.495  41.252  75.669  0.00  0.00    -0.297 N 
ATOM     84  H   TYR A  12      16.622  40.689  75.715  0.00  0.00    +0.150 HD
ATOM     85  O   GLU A  11      18.709  42.709  74.515  0.00  0.00    -0.273 OA
BRANCH  83  86
ATOM     86  CA  TYR A  12      18.435  41.175  76.778  0.00  0.00    +0.153 C 
BRANCH  86  87
ATOM     87  C   TYR A  12      18.665  39.758  77.288  0.00  0.00    +0.241 C 
ATOM     88  N   GLU A  13      19.850  39.592  77.865  0.00  0.00    -0.298 N 
ATOM     89  H   GLU A  13      20.521  40.386  77.882  0.00  0.00    +0.150 HD
ATOM     90  O   TYR A  12      17.796  38.878  77.232  0.00  0.00    -0.273 OA
BRANCH  88  91
ATOM     91  CA  GLU A  13      20.227  38.346  78.464  0.00  0.00    +0.137 C 
BRANCH  91  92
ATOM     92  C   GLU A  13      20.872  38.619  79.778  0.00  0.00    +0.227 C 
ATOM     93  O   GLU A  13      21.505  39.658  79.979  0.00  0.00    -0.286 OA
ENDBRANCH  91  92
BRANCH  91  94
ATOM     94  CB  GLU A  13      21.240  37.562  77.660  0.00  0.00    +0.039 C 
BRANCH  94  95
ATOM     95  CG  GLU A  13      20.951  37.555  76.170  0.00  0.00    +0.116 C 
BRANCH  95  96
ATOM     96  CD  GLU A  13      22.069  36.877  75.456  0.00  0.00    +0.365 C 
ATOM     97  OE2 GLU A  13      22.417  35.732  75.716  0.00  0.00    -0.246 OA
ATOM     98  OE1 GLU A  13      22.645  37.680  74.584  0.00  0.00    -0.246 OA
ENDBRANCH  95  96
ENDBRANCH  94  95
ENDBRANCH  91  94
ENDBRANCH  88  91
ENDBRANCH  86  87
BRANCH  86  99
ATOM     99  CB  TYR A  12      17.953  41.964  78.020  0.00  0.00    +0.055 C 
BRANCH  99 100
ATOM    100  CG  TYR A  12      17.833  43.451  77.831  0.00  0.00    -0.020 A 
ATOM    101  CD2 TYR A  12      18.894  44.272  78.210  0.00  0.00    -0.001 A 
ATOM    102  CE2 TYR A  12      18.807  45.651  78.041  0.00  0.00    +0.036 A 
ATOM    103  CZ  TYR A  12      17.619  46.192  77.544  0.00  0.00    +0.134 A 
ATOM    104  CE1 TYR A  12      16.537  45.393  77.161  0.00  0.00    +0.036 A 
ATOM    105  CD1 TYR A  12      16.662  44.016  77.315  0.00  0.00    -0.001 A 
BRANCH 103 106
ATOM    106  OH  TYR A  12      17.542  47.540  77.416  0.00  0.00    -0.506 OA
ATOM    107  HH  TYR A  12      18.248  47.852  76.797  0.00  0.00    +0.292 HD
ENDBRANCH 103 106
ENDBRANCH  99 100
ENDBRANCH  86  99
ENDBRANCH  83  86
ENDBRANCH  81  82
BRANCH  81 108
ATOM    108  CB  GLU A  11      16.975  41.139  72.248  0.00  0.00    +0.041 C 
BRANCH 108 109
ATOM    109  CG  GLU A  11      17.335  39.669  72.591  0.00  0.00    +0.116 C 
BRANCH 109 110
ATOM    110  CD  GLU A  11      17.233  38.650  71.482  0.00  0.00    +0.365 C 
ATOM    111  OE2 GLU A  11      17.292  37.443  71.681  0.00  0.00    -0.246 OA
ATOM    112  OE1 GLU A  11      17.095  39.190  70.304  0.00  0.00    -0.246 OA
ENDBRANCH 109 110
ENDBRANCH 108 109
ENDBRANCH  81 108
ENDBRANCH  79  81
ENDBRANCH  76  77
BRANCH  76 113
ATOM    113  CB  LYS A  10      15.144  46.186  73.917  0.00  0.00    +0.029 C 
BRANCH 113 114
ATOM    114  CG  LYS A  10      14.882  47.625  73.530  0.00  0.00    +0.000 C 
BRANCH 114 115
ATOM    115  CD  LYS A  10      15.571  48.594  74.445  0.00  0.00    -0.024 C 
BRANCH 115 116
ATOM    116  CE  LYS A  10      14.749  48.828  75.694  0.00  0.00    -0.086 C 
BRANCH 116 117
ATOM    117  NZ  LYS A  10      15.490  49.652  76.662  0.00  0.00    +0.380 N 
ATOM    118  HZ1 LYS A  10      14.906  49.798  77.510  0.00  0.00    -0.089 HD
ATOM    119  HZ2 LYS A  10      16.371  49.166  76.926  0.00  0.00    -0.089 HD
ATOM    120  HZ3 LYS A  10      15.715  50.572  76.232  0.00  0.00    -0.089 HD
ENDBRANCH 116 117
ENDBRANCH 115 116
ENDBRANCH 114 115
ENDBRANCH 113 114
ENDBRANCH  76 113
ENDBRANCH  73  76
ENDBRANCH  71  72
BRANCH  71 121
ATOM    121  CB  TRP A   9      10.924  43.943  71.648  0.00  0.00    +0.057 C 
BRANCH 121 122
ATOM    122  CG  TRP A   9       9.445  44.103  71.673  0.00  0.00    -0.002 A 
ATOM    123  CD2 TRP A   9       8.535  43.690  72.713  0.00  0.00    +0.013 A 
ATOM    124  CE3 TRP A   9       8.694  43.100  73.967  0.00  0.00    +0.001 A 
ATOM    125  CZ3 TRP A   9       7.579  42.861  74.737  0.00  0.00    +0.000 A 
ATOM    126  CH2 TRP A   9       6.297  43.177  74.281  0.00  0.00    +0.001 A 
ATOM    127  CZ2 TRP A   9       6.105  43.778  73.060  0.00  0.00    +0.017 A 
ATOM    128  CE2 TRP A   9       7.235  44.039  72.284  0.00  0.00    +0.056 A 
ATOM    129  NE1 TRP A   9       7.356  44.601  71.044  0.00  0.00    -0.352 N 
ATOM    130  HE1 TRP A   9       6.566  44.925  70.450  0.00  0.00    +0.166 HD
ATOM    131  CD1 TRP A   9       8.689  44.671  70.705  0.00  0.00    +0.068 A 
ENDBRANCH 121 122
ENDBRANCH  71 121
ENDBRANCH  68  71
ENDBRANCH   1  67
TORSDOF 57
REMARK  Name = ../refined-set-2016/1bxr/1bxr_pocket.pdb
REMARK  280 active torsions:
REMARK  status: ('A' for Active; 'I' for Inactive)
REMARK    1  A    between atoms: _1  and  _3
REMARK    2  A    between atoms: _3  and  _4
REMARK    3  A    between atoms: _6  and  _8
REMARK    4  A    between atoms: _8  and  _9
REMARK    5  A    between atoms: _8  and  _11
REMARK    6  A    between atoms: _11  and  _12
REMARK    7  A    between atoms: _12  and  _13
REMARK    8  A    between atoms: _18  and  _20
REMARK    9  A    between atoms: _20  and  _21
REMARK   10  A    between atoms: _20  and  _23
REMARK   11  A    between atoms: _23  and  _24
REMARK   12  A    between atoms: _30  and  _32
REMARK   13  A    between atoms: _32  and  _33
REMARK   14  A    between atoms: _32  and  _35
REMARK   15  A    between atoms: _35  and  _36
REMARK   16  A    between atoms: _36  and  _37
REMARK   17  A    between atoms: _42  and  _44
REMARK   18  A    between atoms: _44  and  _45
REMARK   19  A    between atoms: _48  and  _50
REMARK   20  A    between atoms: _50  and  _51
REMARK   21  A    between atoms: _50  and  _53
REMARK   22  A    between atoms: _53  and  _54
REMARK   23  A    between atoms: _54  and  _55
REMARK   24  A    between atoms: _58  and  _60
REMARK   25  A    between atoms: _60  and  _61
REMARK   26  A    between atoms: _60  and  _63
REMARK   27  A    between atoms: _63  and  _64
REMARK   28  A    between atoms: _65  and  _66
REMARK   29  A    between atoms: _75  and  _77
REMARK   30  A    between atoms: _77  and  _78
REMARK   31  A    between atoms: _77  and  _80
REMARK   32  A    between atoms: _80  and  _81
REMARK   33  A    between atoms: _84  and  _86
REMARK   34  A    between atoms: _86  and  _87
REMARK   35  A    between atoms: _90  and  _92
REMARK   36  A    between atoms: _92  and  _93
REMARK   37  A    between atoms: _92  and  _95
REMARK   38  A    between atoms: _95  and  _96
REMARK   39  A    between atoms: _96  and  _97
REMARK   40  A    between atoms: _97  and  _98
REMARK   41  A    between atoms: _107  and  _109
REMARK   42  A    between atoms: _109  and  _110
REMARK   43  A    between atoms: _109  and  _112
REMARK   44  A    between atoms: _112  and  _113
REMARK   45  A    between atoms: _116  and  _117
REMARK   46  A    between atoms: _122  and  _124
REMARK   47  A    between atoms: _124  and  _125
REMARK   48  A    between atoms: _124  and  _127
REMARK   49  A    between atoms: _129  and  _131
REMARK   50  A    between atoms: _131  and  _132
REMARK   51  A    between atoms: _131  and  _134
REMARK   52  A    between atoms: _134  and  _135
REMARK   53  A    between atoms: _138  and  _140
REMARK   54  A    between atoms: _140  and  _141
REMARK   55  A    between atoms: _140  and  _143
REMARK   56  A    between atoms: _143  and  _144
REMARK   57  A    between atoms: _147  and  _149
REMARK   58  A    between atoms: _149  and  _150
REMARK   59  A    between atoms: _149  and  _152
REMARK   60  A    between atoms: _152  and  _153
REMARK   61  A    between atoms: _153  and  _154
REMARK   62  A    between atoms: _154  and  _155
REMARK   63  A    between atoms: _165  and  _166
REMARK   64  A    between atoms: _171  and  _173
REMARK   65  A    between atoms: _173  and  _174
REMARK   66  A    between atoms: _173  and  _176
REMARK   67  A    between atoms: _176  and  _177
REMARK   68  A    between atoms: _179  and  _181
REMARK   69  A    between atoms: _181  and  _182
REMARK   70  A    between atoms: _181  and  _184
REMARK   71  A    between atoms: _184  and  _185
REMARK   72  A    between atoms: _191  and  _193
REMARK   73  A    between atoms: _193  and  _194
REMARK   74  A    between atoms: _193  and  _196
REMARK   75  A    between atoms: _196  and  _197
REMARK   76  A    between atoms: _200  and  _202
REMARK   77  A    between atoms: _202  and  _203
REMARK   78  A    between atoms: _202  and  _205
REMARK   79  A    between atoms: _205  and  _206
REMARK   80  A    between atoms: _206  and  _207
REMARK   81  A    between atoms: _209  and  _211
REMARK   82  A    between atoms: _211  and  _212
REMARK   83  A    between atoms: _214  and  _216
REMARK   84  A    between atoms: _216  and  _217
REMARK   85  A    between atoms: _219  and  _221
REMARK   86  A    between atoms: _221  and  _222
REMARK   87  A    between atoms: _221  and  _224
REMARK   88  A    between atoms: _224  and  _225
REMARK   89  A    between atoms: _227  and  _229
REMARK   90  A    between atoms: _229  and  _230
REMARK   91  A    between atoms: _232  and  _234
REMARK   92  A    between atoms: _234  and  _235
REMARK   93  A    between atoms: _237  and  _239
REMARK   94  A    between atoms: _239  and  _240
REMARK   95  A    between atoms: _242  and  _244
REMARK   96  A    between atoms: _244  and  _245
REMARK   97  A    between atoms: _244  and  _247
REMARK   98  A    between atoms: _247  and  _248
REMARK   99  A    between atoms: _251  and  _253
REMARK  100  A    between atoms: _253  and  _254
REMARK  101  A    between atoms: _253  and  _256
REMARK  102  A    between atoms: _256  and  _257
REMARK  103  A    between atoms: _262  and  _263
REMARK  104  A    between atoms: _265  and  _267
REMARK  105  A    between atoms: _267  and  _268
REMARK  106  A    between atoms: _267  and  _270
REMARK  107  A    between atoms: _270  and  _271
REMARK  108  A    between atoms: _274  and  _276
REMARK  109  A    between atoms: _276  and  _277
REMARK  110  A    between atoms: _276  and  _279
REMARK  111  A    between atoms: _279  and  _280
REMARK  112  A    between atoms: _283  and  _285
REMARK  113  A    between atoms: _285  and  _286
REMARK  114  A    between atoms: _285  and  _288
REMARK  115  A    between atoms: _288  and  _289
REMARK  116  A    between atoms: _292  and  _294
REMARK  117  A    between atoms: _294  and  _295
REMARK  118  A    between atoms: _294  and  _297
REMARK  119  A    between atoms: _297  and  _298
REMARK  120  A    between atoms: _298  and  _299
REMARK  121  A    between atoms: _302  and  _304
REMARK  122  A    between atoms: _304  and  _305
REMARK  123  A    between atoms: _304  and  _307
REMARK  124  A    between atoms: _307  and  _308
REMARK  125  A    between atoms: _310  and  _312
REMARK  126  A    between atoms: _312  and  _313
REMARK  127  A    between atoms: _312  and  _315
REMARK  128  A    between atoms: _315  and  _316
REMARK  129  A    between atoms: _319  and  _321
REMARK  130  A    between atoms: _321  and  _322
REMARK  131  A    between atoms: _321  and  _324
REMARK  132  A    between atoms: _324  and  _325
REMARK  133  A    between atoms: _328  and  _330
REMARK  134  A    between atoms: _330  and  _331
REMARK  135  A    between atoms: _333  and  _335
REMARK  136  A    between atoms: _335  and  _336
REMARK  137  A    between atoms: _335  and  _338
REMARK  138  A    between atoms: _338  and  _339
REMARK  139  A    between atoms: _349  and  _351
REMARK  140  A    between atoms: _351  and  _352
REMARK  141  A    between atoms: _351  and  _354
REMARK  142  A    between atoms: _354  and  _355
REMARK  143  A    between atoms: _355  and  _356
REMARK  144  A    between atoms: _356  and  _357
REMARK  145  A    between atoms: _357  and  _358
REMARK  146  A    between atoms: _362  and  _364
REMARK  147  A    between atoms: _364  and  _365
REMARK  148  A    between atoms: _364  and  _367
REMARK  149  A    between atoms: _367  and  _368
REMARK  150  A    between atoms: _368  and  _369
REMARK  151  A    between atoms: _372  and  _374
REMARK  152  A    between atoms: _374  and  _375
REMARK  153  A    between atoms: _374  and  _377
REMARK  154  A    between atoms: _377  and  _378
REMARK  155  A    between atoms: _383  and  _384
REMARK  156  A    between atoms: _386  and  _388
REMARK  157  A    between atoms: _388  and  _389
REMARK  158  A    between atoms: _388  and  _391
REMARK  159  A    between atoms: _391  and  _392
REMARK  160  A    between atoms: _392  and  _393
REMARK  161  A    between atoms: _396  and  _398
REMARK  162  A    between atoms: _398  and  _399
REMARK  163  A    between atoms: _398  and  _401
REMARK  164  A    between atoms: _401  and  _402
REMARK  165  A    between atoms: _407  and  _409
REMARK  166  A    between atoms: _409  and  _410
REMARK  167  A    between atoms: _409  and  _412
REMARK  168  A    between atoms: _412  and  _413
REMARK  169  A    between atoms: _416  and  _418
REMARK  170  A    between atoms: _418  and  _419
REMARK  171  A    between atoms: _422  and  _424
REMARK  172  A    between atoms: _424  and  _425
REMARK  173  A    between atoms: _424  and  _427
REMARK  174  A    between atoms: _427  and  _428
REMARK  175  A    between atoms: _428  and  _429
REMARK  176  A    between atoms: _431  and  _433
REMARK  177  A    between atoms: _433  and  _434
REMARK  178  A    between atoms: _436  and  _438
REMARK  179  A    between atoms: _438  and  _439
REMARK  180  A    between atoms: _438  and  _441
REMARK  181  A    between atoms: _441  and  _442
REMARK  182  A    between atoms: _445  and  _447
REMARK  183  A    between atoms: _447  and  _448
REMARK  184  A    between atoms: _447  and  _450
REMARK  185  A    between atoms: _450  and  _451
REMARK  186  A    between atoms: _456  and  _458
REMARK  187  A    between atoms: _458  and  _459
REMARK  188  A    between atoms: _458  and  _461
REMARK  189  A    between atoms: _461  and  _462
REMARK  190  A    between atoms: _465  and  _467
REMARK  191  A    between atoms: _467  and  _468
REMARK  192  A    between atoms: _470  and  _472
REMARK  193  A    between atoms: _472  and  _473
REMARK  194  A    between atoms: _472  and  _475
REMARK  195  A    between atoms: _475  and  _476
REMARK  196  A    between atoms: _479  and  _481
REMARK  197  A    between atoms: _481  and  _482
REMARK  198  A    between atoms: _481  and  _484
REMARK  199  A    between atoms: _484  and  _485
REMARK  200  A    between atoms: _487  and  _489
REMARK  201  A    between atoms: _489  and  _490
REMARK  202  A    between atoms: _489  and  _492
REMARK  203  A    between atoms: _492  and  _493
REMARK  204  A    between atoms: _498  and  _500
REMARK  205  A    between atoms: _500  and  _501
REMARK  206  A    between atoms: _500  and  _503
REMARK  207  A    between atoms: _503  and  _504
REMARK  208  A    between atoms: _504  and  _505
REMARK  209  A    between atoms: _510  and  _512
REMARK  210  A    between atoms: _512  and  _513
REMARK  211  A    between atoms: _512  and  _515
REMARK  212  A    between atoms: _515  and  _516
REMARK  213  A    between atoms: _522  and  _524
REMARK  214  A    between atoms: _524  and  _525
REMARK  215  A    between atoms: _528  and  _530
REMARK  216  A    between atoms: _530  and  _531
REMARK  217  A    between atoms: _530  and  _533
REMARK  218  A    between atoms: _533  and  _534
REMARK  219  A    between atoms: _537  and  _539
REMARK  220  A    between atoms: _539  and  _540
REMARK  221  A    between atoms: _539  and  _542
REMARK  222  A    between atoms: _545  and  _547
REMARK  223  A    between atoms: _547  and  _548
REMARK  224  A    between atoms: _547  and  _550
REMARK  225  A    between atoms: _550  and  _551
REMARK  226  A    between atoms: _554  and  _556
REMARK  227  A    between atoms: _566  and  _569
REMARK  228  A    between atoms: _569  and  _570
REMARK  229  A    between atoms: _570  and  _571
REMARK  230  A    between atoms: _575  and  _576
REMARK  231  A    between atoms: _579  and  _581
REMARK  232  A    between atoms: _585  and  _586
REMARK  233  A    between atoms: _591  and  _593
REMARK  234  A    between atoms: _593  and  _594
REMARK  235  A    between atoms: _593  and  _596
REMARK  236  A    between atoms: _596  and  _597
REMARK  237  A    between atoms: _597  and  _598
REMARK  238  A    between atoms: _598  and  _599
REMARK  239  A    between atoms: _608  and  _610
REMARK  240  A    between atoms: _610  and  _611
REMARK  241  A    between atoms: _610  and  _613
REMARK  242  A    between atoms: _616  and  _618
REMARK  243  A    between atoms: _618  and  _619
REMARK  244  A    between atoms: _618  and  _621
REMARK  245  A    between atoms: _621  and  _622
REMARK  246  A    between atoms: _624  and  _626
REMARK  247  A    between atoms: _626  and  _627
REMARK  248  A    between atoms: _626  and  _629
REMARK  249  A    between atoms: _629  and  _630
REMARK  250  A    between atoms: _630  and  _631
REMARK  251  A    between atoms: _631  and  _632
REMARK  252  A    between atoms: _641  and  _643
REMARK  253  A    between atoms: _643  and  _644
REMARK  254  A    between atoms: _643  and  _646
REMARK  255  A    between atoms: _646  and  _647
REMARK  256  A    between atoms: _649  and  _651
REMARK  257  A    between atoms: _651  and  _652
REMARK  258  A    between atoms: _651  and  _654
REMARK  259  A    between atoms: _654  and  _655
REMARK  260  A    between atoms: _658  and  _660
REMARK  261  A    between atoms: _660  and  _661
REMARK  262  A    between atoms: _660  and  _663
REMARK  263  A    between atoms: _663  and  _664
REMARK  264  A    between atoms: _667  and  _669
REMARK  265  A    between atoms: _669  and  _670
REMARK  266  A    between atoms: _669  and  _672
REMARK  267  A    between atoms: _672  and  _673
REMARK  268  A    between atoms: _673  and  _674
REMARK  269  A    between atoms: _679  and  _681
REMARK  270  A    between atoms: _681  and  _682
REMARK  271  A    between atoms: _681  and  _684
REMARK  272  A    between atoms: _684  and  _685
REMARK  273  A    between atoms: _685  and  _686
REMARK  274  A    between atoms: _688  and  _690
REMARK  275  A    between atoms: _690  and  _691
REMARK  276  A    between atoms: _690  and  _693
REMARK  277  A    between atoms: _693  and  _694
REMARK  278  A    between atoms: _694  and  _695
REMARK  279  A    between atoms: _695  and  _696
REMARK  280  A    between atoms: _696  and  _697
REMARK                            x       y       z     vdW  Elec       q    Type
REMARK                         _______ _______ _______ _____ _____    ______ ____
ROOT
ATOM      1  CB  ASN A   1      20.697  42.473  71.599  0.00  0.00    +0.110 C 
ENDROOT
BRANCH   1   2
ATOM      2  CG  ASN A   1      21.001  40.987  71.811  0.00  0.00    +0.221 C 
ATOM      3  ND2 ASN A   1      21.569  40.632  72.966  0.00  0.00    -0.329 N 
ATOM      4 HD21 ASN A   1      21.818  41.358  73.668  0.00  0.00    +0.145 HD
ATOM      5 HD22 ASN A   1      21.762  39.629  73.164  0.00  0.00    +0.145 HD
ATOM      6  OD1 ASN A   1      20.687  40.155  70.945  0.00  0.00    -0.275 OA
ENDBRANCH   1   2
BRANCH   1   7
ATOM      7  CA  ASN A   1      21.684  43.482  72.255  0.00  0.00    +0.142 C 
BRANCH   7   8
ATOM      8  N   ASN A   1      21.412  43.690  73.681  0.00  0.00    -0.239 NA
ATOM      9  H   ASN A   1      20.481  43.427  74.062  0.00  0.00    +0.142 HD
ENDBRANCH   7   8
BRANCH   7  10
ATOM     10  C   ASN A   1      21.597  44.812  71.484  0.00  0.00    +0.225 C 
ATOM     11  O   ASN A   1      20.756  45.663  71.806  0.00  0.00    -0.287 OA
ENDBRANCH   7  10
ENDBRANCH   1   7
TORSDOF 4
REMARK  Name = ../refined-set-2016/1bxr/1bxr_pocket.pdb
REMARK  280 active torsions:
REMARK  status: ('A' for Active; 'I' for Inactive)
REMARK    1  A    between atoms: _1  and  _3
REMARK    2  A    between atoms: _3  and  _4
REMARK    3  A    between atoms: _6  and  _8
REMARK    4  A    between atoms: _8  and  _9
REMARK    5  A    between atoms: _8  and  _11
REMARK    6  A    between atoms: _11  and  _12
REMARK    7  A    between atoms: _12  and  _13
REMARK    8  A    between atoms: _18  and  _20
REMARK    9  A    between atoms: _20  and  _21
REMARK   10  A    between atoms: _20  and  _23
REMARK   11  A    between atoms: _23  and  _24
REMARK   12  A    between atoms: _30  and  _32
REMARK   13  A    between atoms: _32  and  _33
REMARK   14  A    between atoms: _32  and  _35
REMARK   15  A    between atoms: _35  and  _36
REMARK   16  A    between atoms: _36  and  _37
REMARK   17  A    between atoms: _42  and  _44
REMARK   18  A    between atoms: _44  and  _45
REMARK   19  A    between atoms: _48  and  _50
REMARK   20  A    between atoms: _50  and  _51
REMARK   21  A    between atoms: _50  and  _53
REMARK   22  A    between atoms: _53  and  _54
REMARK   23  A    between atoms: _54  and  _55
REMARK   24  A    between atoms: _58  and  _60
REMARK   25  A    between atoms: _60  and  _61
REMARK   26  A    between atoms: _60  and  _63
REMARK   27  A    between atoms: _63  and  _64
REMARK   28  A    between atoms: _65  and  _66
REMARK   29  A    between atoms: _75  and  _77
REMARK   30  A    between atoms: _77  and  _78
REMARK   31  A    between atoms: _77  and  _80
REMARK   32  A    between atoms: _80  and  _81
REMARK   33  A    between atoms: _84  and  _86
REMARK   34  A    between atoms: _86  and  _87
REMARK   35  A    between atoms: _90  and  _92
REMARK   36  A    between atoms: _92  and  _93
REMARK   37  A    between atoms: _92  and  _95
REMARK   38  A    between atoms: _95  and  _96
REMARK   39  A    between atoms: _96  and  _97
REMARK   40  A    between atoms: _97  and  _98
REMARK   41  A    between atoms: _107  and  _109
REMARK   42  A    between atoms: _109  and  _110
REMARK   43  A    between atoms: _109  and  _112
REMARK   44  A    between atoms: _112  and  _113
REMARK   45  A    between atoms: _116  and  _117
REMARK   46  A    between atoms: _122  and  _124
REMARK   47  A    between atoms: _124  and  _125
REMARK   48  A    between atoms: _124  and  _127
REMARK   49  A    between atoms: _129  and  _131
REMARK   50  A    between atoms: _131  and  _132
REMARK   51  A    between atoms: _131  and  _134
REMARK   52  A    between atoms: _134  and  _135
REMARK   53  A    between atoms: _138  and  _140
REMARK   54  A    between atoms: _140  and  _141
REMARK   55  A    between atoms: _140  and  _143
REMARK   56  A    between atoms: _143  and  _144
REMARK   57  A    between atoms: _147  and  _149
REMARK   58  A    between atoms: _149  and  _150
REMARK   59  A    between atoms: _149  and  _152
REMARK   60  A    between atoms: _152  and  _153
REMARK   61  A    between atoms: _153  and  _154
REMARK   62  A    between atoms: _154  and  _155
REMARK   63  A    between atoms: _165  and  _166
REMARK   64  A    between atoms: _171  and  _173
REMARK   65  A    between atoms: _173  and  _174
REMARK   66  A    between atoms: _173  and  _176
REMARK   67  A    between atoms: _176  and  _177
REMARK   68  A    between atoms: _179  and  _181
REMARK   69  A    between atoms: _181  and  _182
REMARK   70  A    between atoms: _181  and  _184
REMARK   71  A    between atoms: _184  and  _185
REMARK   72  A    between atoms: _191  and  _193
REMARK   73  A    between atoms: _193  and  _194
REMARK   74  A    between atoms: _193  and  _196
REMARK   75  A    between atoms: _196  and  _197
REMARK   76  A    between atoms: _200  and  _202
REMARK   77  A    between atoms: _202  and  _203
REMARK   78  A    between atoms: _202  and  _205
REMARK   79  A    between atoms: _205  and  _206
REMARK   80  A    between atoms: _206  and  _207
REMARK   81  A    between atoms: _209  and  _211
REMARK   82  A    between atoms: _211  and  _212
REMARK   83  A    between atoms: _214  and  _216
REMARK   84  A    between atoms: _216  and  _217
REMARK   85  A    between atoms: _219  and  _221
REMARK   86  A    between atoms: _221  and  _222
REMARK   87  A    between atoms: _221  and  _224
REMARK   88  A    between atoms: _224  and  _225
REMARK   89  A    between atoms: _227  and  _229
REMARK   90  A    between atoms: _229  and  _230
REMARK   91  A    between atoms: _232  and  _234
REMARK   92  A    between atoms: _234  and  _235
REMARK   93  A    between atoms: _237  and  _239
REMARK   94  A    between atoms: _239  and  _240
REMARK   95  A    between atoms: _242  and  _244
REMARK   96  A    between atoms: _244  and  _245
REMARK   97  A    between atoms: _244  and  _247
REMARK   98  A    between atoms: _247  and  _248
REMARK   99  A    between atoms: _251  and  _253
REMARK  100  A    between atoms: _253  and  _254
REMARK  101  A    between atoms: _253  and  _256
REMARK  102  A    between atoms: _256  and  _257
REMARK  103  A    between atoms: _262  and  _263
REMARK  104  A    between atoms: _265  and  _267
REMARK  105  A    between atoms: _267  and  _268
REMARK  106  A    between atoms: _267  and  _270
REMARK  107  A    between atoms: _270  and  _271
REMARK  108  A    between atoms: _274  and  _276
REMARK  109  A    between atoms: _276  and  _277
REMARK  110  A    between atoms: _276  and  _279
REMARK  111  A    between atoms: _279  and  _280
REMARK  112  A    between atoms: _283  and  _285
REMARK  113  A    between atoms: _285  and  _286
REMARK  114  A    between atoms: _285  and  _288
REMARK  115  A    between atoms: _288  and  _289
REMARK  116  A    between atoms: _292  and  _294
REMARK  117  A    between atoms: _294  and  _295
REMARK  118  A    between atoms: _294  and  _297
REMARK  119  A    between atoms: _297  and  _298
REMARK  120  A    between atoms: _298  and  _299
REMARK  121  A    between atoms: _302  and  _304
REMARK  122  A    between atoms: _304  and  _305
REMARK  123  A    between atoms: _304  and  _307
REMARK  124  A    between atoms: _307  and  _308
REMARK  125  A    between atoms: _310  and  _312
REMARK  126  A    between atoms: _312  and  _313
REMARK  127  A    between atoms: _312  and  _315
REMARK  128  A    between atoms: _315  and  _316
REMARK  129  A    between atoms: _319  and  _321
REMARK  130  A    between atoms: _321  and  _322
REMARK  131  A    between atoms: _321  and  _324
REMARK  132  A    between atoms: _324  and  _325
REMARK  133  A    between atoms: _328  and  _330
REMARK  134  A    between atoms: _330  and  _331
REMARK  135  A    between atoms: _333  and  _335
REMARK  136  A    between atoms: _335  and  _336
REMARK  137  A    between atoms: _335  and  _338
REMARK  138  A    between atoms: _338  and  _339
REMARK  139  A    between atoms: _349  and  _351
REMARK  140  A    between atoms: _351  and  _352
REMARK  141  A    between atoms: _351  and  _354
REMARK  142  A    between atoms: _354  and  _355
REMARK  143  A    between atoms: _355  and  _356
REMARK  144  A    between atoms: _356  and  _357
REMARK  145  A    between atoms: _357  and  _358
REMARK  146  A    between atoms: _362  and  _364
REMARK  147  A    between atoms: _364  and  _365
REMARK  148  A    between atoms: _364  and  _367
REMARK  149  A    between atoms: _367  and  _368
REMARK  150  A    between atoms: _368  and  _369
REMARK  151  A    between atoms: _372  and  _374
REMARK  152  A    between atoms: _374  and  _375
REMARK  153  A    between atoms: _374  and  _377
REMARK  154  A    between atoms: _377  and  _378
REMARK  155  A    between atoms: _383  and  _384
REMARK  156  A    between atoms: _386  and  _388
REMARK  157  A    between atoms: _388  and  _389
REMARK  158  A    between atoms: _388  and  _391
REMARK  159  A    between atoms: _391  and  _392
REMARK  160  A    between atoms: _392  and  _393
REMARK  161  A    between atoms: _396  and  _398
REMARK  162  A    between atoms: _398  and  _399
REMARK  163  A    between atoms: _398  and  _401
REMARK  164  A    between atoms: _401  and  _402
REMARK  165  A    between atoms: _407  and  _409
REMARK  166  A    between atoms: _409  and  _410
REMARK  167  A    between atoms: _409  and  _412
REMARK  168  A    between atoms: _412  and  _413
REMARK  169  A    between atoms: _416  and  _418
REMARK  170  A    between atoms: _418  and  _419
REMARK  171  A    between atoms: _422  and  _424
REMARK  172  A    between atoms: _424  and  _425
REMARK  173  A    between atoms: _424  and  _427
REMARK  174  A    between atoms: _427  and  _428
REMARK  175  A    between atoms: _428  and  _429
REMARK  176  A    between atoms: _431  and  _433
REMARK  177  A    between atoms: _433  and  _434
REMARK  178  A    between atoms: _436  and  _438
REMARK  179  A    between atoms: _438  and  _439
REMARK  180  A    between atoms: _438  and  _441
REMARK  181  A    between atoms: _441  and  _442
REMARK  182  A    between atoms: _445  and  _447
REMARK  183  A    between atoms: _447  and  _448
REMARK  184  A    between atoms: _447  and  _450
REMARK  185  A    between atoms: _450  and  _451
REMARK  186  A    between atoms: _456  and  _458
REMARK  187  A    between atoms: _458  and  _459
REMARK  188  A    between atoms: _458  and  _461
REMARK  189  A    between atoms: _461  and  _462
REMARK  190  A    between atoms: _465  and  _467
REMARK  191  A    between atoms: _467  and  _468
REMARK  192  A    between atoms: _470  and  _472
REMARK  193  A    between atoms: _472  and  _473
REMARK  194  A    between atoms: _472  and  _475
REMARK  195  A    between atoms: _475  and  _476
REMARK  196  A    between atoms: _479  and  _481
REMARK  197  A    between atoms: _481  and  _482
REMARK  198  A    between atoms: _481  and  _484
REMARK  199  A    between atoms: _484  and  _485
REMARK  200  A    between atoms: _487  and  _489
REMARK  201  A    between atoms: _489  and  _490
REMARK  202  A    between atoms: _489  and  _492
REMARK  203  A    between atoms: _492  and  _493
REMARK  204  A    between atoms: _498  and  _500
REMARK  205  A    between atoms: _500  and  _501
REMARK  206  A    between atoms: _500  and  _503
REMARK  207  A    between atoms: _503  and  _504
REMARK  208  A    between atoms: _504  and  _505
REMARK  209  A    between atoms: _510  and  _512
REMARK  210  A    between atoms: _512  and  _513
REMARK  211  A    between atoms: _512  and  _515
REMARK  212  A    between atoms: _515  and  _516
REMARK  213  A    between atoms: _522  and  _524
REMARK  214  A    between atoms: _524  and  _525
REMARK  215  A    between atoms: _528  and  _530
REMARK  216  A    between atoms: _530  and  _531
REMARK  217  A    between atoms: _530  and  _533
REMARK  218  A    between atoms: _533  and  _534
REMARK  219  A    between atoms: _537  and  _539
REMARK  220  A    between atoms: _539  and  _540
REMARK  221  A    between atoms: _539  and  _542
REMARK  222  A    between atoms: _545  and  _547
REMARK  223  A    between atoms: _547  and  _548
REMARK  224  A    between atoms: _547  and  _550
REMARK  225  A    between atoms: _550  and  _551
REMARK  226  A    between atoms: _554  and  _556
REMARK  227  A    between atoms: _566  and  _569
REMARK  228  A    between atoms: _569  and  _570
REMARK  229  A    between atoms: _570  and  _571
REMARK  230  A    between atoms: _575  and  _576
REMARK  231  A    between atoms: _579  and  _581
REMARK  232  A    between atoms: _585  and  _586
REMARK  233  A    between atoms: _591  and  _593
REMARK  234  A    between atoms: _593  and  _594
REMARK  235  A    between atoms: _593  and  _596
REMARK  236  A    between atoms: _596  and  _597
REMARK  237  A    between atoms: _597  and  _598
REMARK  238  A    between atoms: _598  and  _599
REMARK  239  A    between atoms: _608  and  _610
REMARK  240  A    between atoms: _610  and  _611
REMARK  241  A    between atoms: _610  and  _613
REMARK  242  A    between atoms: _616  and  _618
REMARK  243  A    between atoms: _618  and  _619
REMARK  244  A    between atoms: _618  and  _621
REMARK  245  A    between atoms: _621  and  _622
REMARK  246  A    between atoms: _624  and  _626
REMARK  247  A    between atoms: _626  and  _627
REMARK  248  A    between atoms: _626  and  _629
REMARK  249  A    between atoms: _629  and  _630
REMARK  250  A    between atoms: _630  and  _631
REMARK  251  A    between atoms: _631  and  _632
REMARK  252  A    between atoms: _641  and  _643
REMARK  253  A    between atoms: _643  and  _644
REMARK  254  A    between atoms: _643  and  _646
REMARK  255  A    between atoms: _646  and  _647
REMARK  256  A    between atoms: _649  and  _651
REMARK  257  A    between atoms: _651  and  _652
REMARK  258  A    between atoms: _651  and  _654
REMARK  259  A    between atoms: _654  and  _655
REMARK  260  A    between atoms: _658  and  _660
REMARK  261  A    between atoms: _660  and  _661
REMARK  262  A    between atoms: _660  and  _663
REMARK  263  A    between atoms: _663  and  _664
REMARK  264  A    between atoms: _667  and  _669
REMARK  265  A    between atoms: _669  and  _670
REMARK  266  A    between atoms: _669  and  _672
REMARK  267  A    between atoms: _672  and  _673
REMARK  268  A    between atoms: _673  and  _674
REMARK  269  A    between atoms: _679  and  _681
REMARK  270  A    between atoms: _681  and  _682
REMARK  271  A    between atoms: _681  and  _684
REMARK  272  A    between atoms: _684  and  _685
REMARK  273  A    between atoms: _685  and  _686
REMARK  274  A    between atoms: _688  and  _690
REMARK  275  A    between atoms: _690  and  _691
REMARK  276  A    between atoms: _690  and  _693
REMARK  277  A    between atoms: _693  and  _694
REMARK  278  A    between atoms: _694  and  _695
REMARK  279  A    between atoms: _695  and  _696
REMARK  280  A    between atoms: _696  and  _697
REMARK                            x       y       z     vdW  Elec       q    Type
REMARK                         _______ _______ _______ _____ _____    ______ ____
ROOT
ATOM      1  C   ILE A   5      18.774  37.905  65.948  0.00  0.00    +0.241 C 
ATOM      2  O   ILE A   5      18.947  38.532  66.990  0.00  0.00    -0.273 OA
ATOM      3  N   HIS A   6      19.003  36.590  65.799  0.00  0.00    -0.297 N 
ATOM      4  H   HIS A   6      18.782  36.151  64.882  0.00  0.00    +0.150 HD
ENDROOT
BRANCH   1   5
ATOM      5  CA  ILE A   5      18.177  38.650  64.775  0.00  0.00    +0.149 C 
BRANCH   5   7
ATOM      6  C   GLY A   4      15.717  38.662  64.571  0.00  0.00    +0.243 C 
ATOM      7  N   ILE A   5      16.838  39.028  65.193  0.00  0.00    -0.297 N 
ATOM      8  H   ILE A   5      16.747  39.627  66.038  0.00  0.00    +0.150 HD
ATOM      9  O   GLY A   4      15.698  38.020  63.518  0.00  0.00    -0.273 OA
BRANCH   6  10
ATOM     10  CA  GLY A   4      14.431  39.101  65.253  0.00  0.00    +0.176 C 
BRANCH  10  12
ATOM     11  C   MET A   3      14.364  40.695  67.082  0.00  0.00    +0.241 C 
ATOM     12  N   GLY A   4      14.619  39.466  66.650  0.00  0.00    -0.295 N 
ATOM     13  H   GLY A   4      14.960  38.750  67.323  0.00  0.00    +0.150 HD
ATOM     14  O   MET A   3      13.965  41.589  66.327  0.00  0.00    -0.273 OA
BRANCH  11  15
ATOM     15  CA  MET A   3      14.598  40.975  68.559  0.00  0.00    +0.149 C 
BRANCH  15  17
ATOM     16  C   ALA A   2      16.341  42.590  67.908  0.00  0.00    +0.241 C 
ATOM     17  N   MET A   3      15.246  42.281  68.635  0.00  0.00    -0.297 N 
ATOM     18  H   MET A   3      14.849  43.000  69.273  0.00  0.00    +0.150 HD
ATOM     19  O   ALA A   2      16.941  41.780  67.187  0.00  0.00    -0.273 OA
BRANCH  16  20
ATOM     20  CA  ALA A   2      16.842  44.032  68.012  0.00  0.00    +0.149 C 
ATOM     21  CB  ALA A   2      15.738  45.045  67.636  0.00  0.00    +0.031 C 
BRANCH  20  24
ATOM     22  C   ASP A   1      19.275  43.906  67.673  0.00  0.00    +0.239 C 
ATOM     23  O   ASP A   1      19.389  43.267  68.696  0.00  0.00    -0.274 OA
ATOM     24  N   ALA A   2      18.077  44.320  67.258  0.00  0.00    -0.297 N 
ATOM     25  H   ALA A   2      18.011  44.864  66.374  0.00  0.00    +0.150 HD
BRANCH  22  26
ATOM     26  CA  ASP A   1      20.528  44.343  66.918  0.00  0.00    +0.156 C 
BRANCH  26  27
ATOM     27  N   ASP A   1      21.484  44.800  67.910  0.00  0.00    -0.238 NA
ATOM     28  H   ASP A   1      22.273  44.166  68.148  0.00  0.00    +0.142 HD
ENDBRANCH  26  27
BRANCH  26  29
ATOM     29  CB  ASP A   1      21.174  43.222  66.113  0.00  0.00    +0.140 C 
BRANCH  29  30
ATOM     30  CG  ASP A   1      22.227  43.864  65.266  0.00  0.00    +0.367 C 
ATOM     31  OD2 ASP A   1      23.431  43.387  65.442  0.00  0.00    -0.246 OA
ATOM     32  OD1 ASP A   1      21.989  44.806  64.543  0.00  0.00    -0.246 OA
ENDBRANCH  29  30
ENDBRANCH  26  29
ENDBRANCH  22  26
ENDBRANCH  20  24
ENDBRANCH  16  20
ENDBRANCH  15  17
BRANCH  15  33
ATOM     33  CB  MET A   3      13.193  41.005  69.209  0.00  0.00    +0.041 C 
BRANCH  33  34
ATOM     34  CG  MET A   3      13.260  41.025  70.711  0.00  0.00    +0.060 C 
BRANCH  34  35
ATOM     35  SD  MET A   3      13.783  39.428  71.377  0.00  0.00    -0.139 S 
ATOM     36  CE  MET A   3      12.350  38.506  70.827  0.00  0.00    +0.069 C 
ENDBRANCH  34  35
ENDBRANCH  33  34
ENDBRANCH  15  33
ENDBRANCH  11  15
ENDBRANCH  10  12
ENDBRANCH   6  10
ENDBRANCH   5   7
BRANCH   5  37
ATOM     37  CB  ILE A   5      19.044  39.864  64.470  0.00  0.00    +0.027 C 
ATOM     38  CG2 ILE A   5      20.483  39.415  64.255  0.00  0.00    +0.002 C 
BRANCH  37  39
ATOM     39  CG1 ILE A   5      18.562  40.561  63.208  0.00  0.00    +0.002 C 
ATOM     40  CD1 ILE A   5      19.355  41.826  62.961  0.00  0.00    +0.000 C 
ENDBRANCH  37  39
ENDBRANCH   5  37
ENDBRANCH   1   5
BRANCH   3  41
ATOM     41  CA  HIS A   6      19.550  35.740  66.865  0.00  0.00    +0.155 C 
BRANCH  41  42
ATOM     42  C   HIS A   6      20.672  36.452  67.627  0.00  0.00    +0.241 C 
ATOM     43  N   THR A   7      20.721  36.322  68.948  0.00  0.00    -0.295 N 
ATOM     44  H   THR A   7      20.006  35.747  69.438  0.00  0.00    +0.150 HD
ATOM     45  O   HIS A   6      21.459  37.169  67.024  0.00  0.00    -0.273 OA
BRANCH  43  46
ATOM     46  CA  THR A   7      21.768  36.979  69.711  0.00  0.00    +0.176 C 
BRANCH  46  47
ATOM     47  C   THR A   7      23.175  36.688  69.242  0.00  0.00    +0.243 C 
ATOM     48  O   THR A   7      24.062  37.500  69.473  0.00  0.00    -0.273 OA
ATOM     49  N   GLY A   8      23.360  35.490  68.665  0.00  0.00    -0.295 N 
ATOM     50  H   GLY A   8      22.528  34.876  68.549  0.00  0.00    +0.150 HD
BRANCH  49  51
ATOM     51  CA  GLY A   8      24.647  34.986  68.188  0.00  0.00    +0.176 C 
BRANCH  51  52
ATOM     52  C   GLY A   8      25.087  35.681  66.910  0.00  0.00    +0.243 C 
ATOM     53  O   GLY A   8      26.265  35.724  66.567  0.00  0.00    -0.273 OA
ATOM     54  N   ASP A   9      24.105  36.222  66.214  0.00  0.00    -0.296 N 
ATOM     55  H   ASP A   9      23.130  36.110  66.559  0.00  0.00    +0.150 HD
BRANCH  54  56
ATOM     56  CA  ASP A   9      24.323  36.957  65.004  0.00  0.00    +0.160 C 
BRANCH  56  57
ATOM     57  C   ASP A   9      24.202  38.484  65.243  0.00  0.00    +0.241 C 
ATOM     58  N   SER A  10      24.001  38.872  66.506  0.00  0.00    -0.296 N 
ATOM     59  H   SER A  10      23.928  38.146  67.247  0.00  0.00    +0.150 HD
ATOM     60  O   ASP A   9      24.317  39.298  64.334  0.00  0.00    -0.273 OA
BRANCH  58  61
ATOM     61  CA  SER A  10      23.882  40.258  66.881  0.00  0.00    +0.166 C 
BRANCH  61  62
ATOM     62  CB  SER A  10      25.130  40.802  67.546  0.00  0.00    +0.229 C 
ATOM     63  OG  SER A  10      25.896  40.067  68.172  0.00  0.00    -0.286 OA
ENDBRANCH  61  62
BRANCH  61  64
ATOM     64  C   SER A  10      22.774  40.482  67.895  0.00  0.00    +0.165 C 
BRANCH  64  65
ATOM     65  O   SER A  10      21.570  39.862  67.504  0.00  0.00    -0.380 OA
ATOM     66  H   SER A  10      21.716  38.887  67.414  0.00  0.00    +0.211 HD
ENDBRANCH  64  65
ENDBRANCH  61  64
ENDBRANCH  58  61
ENDBRANCH  56  57
BRANCH  56  67
ATOM     67  CB  ASP A   9      23.370  36.425  63.929  0.00  0.00    +0.143 C 
BRANCH  67  68
ATOM     68  CG  ASP A   9      23.897  35.249  63.164  0.00  0.00    +0.367 C 
ATOM     69  OD2 ASP A   9      24.851  34.630  63.807  0.00  0.00    -0.246 OA
ATOM     70  OD1 ASP A   9      23.477  34.921  62.064  0.00  0.00    -0.246 OA
ENDBRANCH  67  68
ENDBRANCH  56  67
ENDBRANCH  54  56
ENDBRANCH  51  52
ENDBRANCH  49  51
ENDBRANCH  46  47
BRANCH  46  71
ATOM     71  CB  THR A   7      21.671  36.571  71.176  0.00  0.00    +0.137 C 
ATOM     72  CG2 THR A   7      20.404  37.185  71.744  0.00  0.00    +0.034 C 
BRANCH  71  73
ATOM     73  OG1 THR A   7      21.567  35.162  71.260  0.00  0.00    -0.382 OA
ATOM     74  HG1 THR A   7      22.368  34.748  70.851  0.00  0.00    +0.210 HD
ENDBRANCH  71  73
ENDBRANCH  46  71
ENDBRANCH  43  46
ENDBRANCH  41  42
BRANCH  41  75
ATOM     75  CB  HIS A   6      20.052  34.400  66.259  0.00  0.00    +0.076 C 
BRANCH  75  76
ATOM     76  CG  HIS A   6      20.360  33.334  67.263  0.00  0.00    +0.082 A 
ATOM     77  ND1 HIS A   6      21.454  33.412  68.108  0.00  0.00    -0.227 NA
ATOM     78  CE1 HIS A   6      21.437  32.321  68.893  0.00  0.00    +0.199 A 
ATOM     79  NE2 HIS A   6      20.406  31.543  68.568  0.00  0.00    -0.221 NA
ATOM     80  CD2 HIS A   6      19.705  32.166  67.545  0.00  0.00    +0.115 A 
ENDBRANCH  75  76
ENDBRANCH  41  75
ENDBRANCH   3  41
TORSDOF 35
REMARK  Name = ../refined-set-2016/1bxr/1bxr_pocket.pdb
REMARK  280 active torsions:
REMARK  status: ('A' for Active; 'I' for Inactive)
REMARK    1  A    between atoms: _1  and  _3
REMARK    2  A    between atoms: _3  and  _4
REMARK    3  A    between atoms: _6  and  _8
REMARK    4  A    between atoms: _8  and  _9
REMARK    5  A    between atoms: _8  and  _11
REMARK    6  A    between atoms: _11  and  _12
REMARK    7  A    between atoms: _12  and  _13
REMARK    8  A    between atoms: _18  and  _20
REMARK    9  A    between atoms: _20  and  _21
REMARK   10  A    between atoms: _20  and  _23
REMARK   11  A    between atoms: _23  and  _24
REMARK   12  A    between atoms: _30  and  _32
REMARK   13  A    between atoms: _32  and  _33
REMARK   14  A    between atoms: _32  and  _35
REMARK   15  A    between atoms: _35  and  _36
REMARK   16  A    between atoms: _36  and  _37
REMARK   17  A    between atoms: _42  and  _44
REMARK   18  A    between atoms: _44  and  _45
REMARK   19  A    between atoms: _48  and  _50
REMARK   20  A    between atoms: _50  and  _51
REMARK   21  A    between atoms: _50  and  _53
REMARK   22  A    between atoms: _53  and  _54
REMARK   23  A    between atoms: _54  and  _55
REMARK   24  A    between atoms: _58  and  _60
REMARK   25  A    between atoms: _60  and  _61
REMARK   26  A    between atoms: _60  and  _63
REMARK   27  A    between atoms: _63  and  _64
REMARK   28  A    between atoms: _65  and  _66
REMARK   29  A    between atoms: _75  and  _77
REMARK   30  A    between atoms: _77  and  _78
REMARK   31  A    between atoms: _77  and  _80
REMARK   32  A    between atoms: _80  and  _81
REMARK   33  A    between atoms: _84  and  _86
REMARK   34  A    between atoms: _86  and  _87
REMARK   35  A    between atoms: _90  and  _92
REMARK   36  A    between atoms: _92  and  _93
REMARK   37  A    between atoms: _92  and  _95
REMARK   38  A    between atoms: _95  and  _96
REMARK   39  A    between atoms: _96  and  _97
REMARK   40  A    between atoms: _97  and  _98
REMARK   41  A    between atoms: _107  and  _109
REMARK   42  A    between atoms: _109  and  _110
REMARK   43  A    between atoms: _109  and  _112
REMARK   44  A    between atoms: _112  and  _113
REMARK   45  A    between atoms: _116  and  _117
REMARK   46  A    between atoms: _122  and  _124
REMARK   47  A    between atoms: _124  and  _125
REMARK   48  A    between atoms: _124  and  _127
REMARK   49  A    between atoms: _129  and  _131
REMARK   50  A    between atoms: _131  and  _132
REMARK   51  A    between atoms: _131  and  _134
REMARK   52  A    between atoms: _134  and  _135
REMARK   53  A    between atoms: _138  and  _140
REMARK   54  A    between atoms: _140  and  _141
REMARK   55  A    between atoms: _140  and  _143
REMARK   56  A    between atoms: _143  and  _144
REMARK   57  A    between atoms: _147  and  _149
REMARK   58  A    between atoms: _149  and  _150
REMARK   59  A    between atoms: _149  and  _152
REMARK   60  A    between atoms: _152  and  _153
REMARK   61  A    between atoms: _153  and  _154
REMARK   62  A    between atoms: _154  and  _155
REMARK   63  A    between atoms: _165  and  _166
REMARK   64  A    between atoms: _171  and  _173
REMARK   65  A    between atoms: _173  and  _174
REMARK   66  A    between atoms: _173  and  _176
REMARK   67  A    between atoms: _176  and  _177
REMARK   68  A    between atoms: _179  and  _181
REMARK   69  A    between atoms: _181  and  _182
REMARK   70  A    between atoms: _181  and  _184
REMARK   71  A    between atoms: _184  and  _185
REMARK   72  A    between atoms: _191  and  _193
REMARK   73  A    between atoms: _193  and  _194
REMARK   74  A    between atoms: _193  and  _196
REMARK   75  A    between atoms: _196  and  _197
REMARK   76  A    between atoms: _200  and  _202
REMARK   77  A    between atoms: _202  and  _203
REMARK   78  A    between atoms: _202  and  _205
REMARK   79  A    between atoms: _205  and  _206
REMARK   80  A    between atoms: _206  and  _207
REMARK   81  A    between atoms: _209  and  _211
REMARK   82  A    between atoms: _211  and  _212
REMARK   83  A    between atoms: _214  and  _216
REMARK   84  A    between atoms: _216  and  _217
REMARK   85  A    between atoms: _219  and  _221
REMARK   86  A    between atoms: _221  and  _222
REMARK   87  A    between atoms: _221  and  _224
REMARK   88  A    between atoms: _224  and  _225
REMARK   89  A    between atoms: _227  and  _229
REMARK   90  A    between atoms: _229  and  _230
REMARK   91  A    between atoms: _232  and  _234
REMARK   92  A    between atoms: _234  and  _235
REMARK   93  A    between atoms: _237  and  _239
REMARK   94  A    between atoms: _239  and  _240
REMARK   95  A    between atoms: _242  and  _244
REMARK   96  A    between atoms: _244  and  _245
REMARK   97  A    between atoms: _244  and  _247
REMARK   98  A    between atoms: _247  and  _248
REMARK   99  A    between atoms: _251  and  _253
REMARK  100  A    between atoms: _253  and  _254
REMARK  101  A    between atoms: _253  and  _256
REMARK  102  A    between atoms: _256  and  _257
REMARK  103  A    between atoms: _262  and  _263
REMARK  104  A    between atoms: _265  and  _267
REMARK  105  A    between atoms: _267  and  _268
REMARK  106  A    between atoms: _267  and  _270
REMARK  107  A    between atoms: _270  and  _271
REMARK  108  A    between atoms: _274  and  _276
REMARK  109  A    between atoms: _276  and  _277
REMARK  110  A    between atoms: _276  and  _279
REMARK  111  A    between atoms: _279  and  _280
REMARK  112  A    between atoms: _283  and  _285
REMARK  113  A    between atoms: _285  and  _286
REMARK  114  A    between atoms: _285  and  _288
REMARK  115  A    between atoms: _288  and  _289
REMARK  116  A    between atoms: _292  and  _294
REMARK  117  A    between atoms: _294  and  _295
REMARK  118  A    between atoms: _294  and  _297
REMARK  119  A    between atoms: _297  and  _298
REMARK  120  A    between atoms: _298  and  _299
REMARK  121  A    between atoms: _302  and  _304
REMARK  122  A    between atoms: _304  and  _305
REMARK  123  A    between atoms: _304  and  _307
REMARK  124  A    between atoms: _307  and  _308
REMARK  125  A    between atoms: _310  and  _312
REMARK  126  A    between atoms: _312  and  _313
REMARK  127  A    between atoms: _312  and  _315
REMARK  128  A    between atoms: _315  and  _316
REMARK  129  A    between atoms: _319  and  _321
REMARK  130  A    between atoms: _321  and  _322
REMARK  131  A    between atoms: _321  and  _324
REMARK  132  A    between atoms: _324  and  _325
REMARK  133  A    between atoms: _328  and  _330
REMARK  134  A    between atoms: _330  and  _331
REMARK  135  A    between atoms: _333  and  _335
REMARK  136  A    between atoms: _335  and  _336
REMARK  137  A    between atoms: _335  and  _338
REMARK  138  A    between atoms: _338  and  _339
REMARK  139  A    between atoms: _349  and  _351
REMARK  140  A    between atoms: _351  and  _352
REMARK  141  A    between atoms: _351  and  _354
REMARK  142  A    between atoms: _354  and  _355
REMARK  143  A    between atoms: _355  and  _356
REMARK  144  A    between atoms: _356  and  _357
REMARK  145  A    between atoms: _357  and  _358
REMARK  146  A    between atoms: _362  and  _364
REMARK  147  A    between atoms: _364  and  _365
REMARK  148  A    between atoms: _364  and  _367
REMARK  149  A    between atoms: _367  and  _368
REMARK  150  A    between atoms: _368  and  _369
REMARK  151  A    between atoms: _372  and  _374
REMARK  152  A    between atoms: _374  and  _375
REMARK  153  A    between atoms: _374  and  _377
REMARK  154  A    between atoms: _377  and  _378
REMARK  155  A    between atoms: _383  and  _384
REMARK  156  A    between atoms: _386  and  _388
REMARK  157  A    between atoms: _388  and  _389
REMARK  158  A    between atoms: _388  and  _391
REMARK  159  A    between atoms: _391  and  _392
REMARK  160  A    between atoms: _392  and  _393
REMARK  161  A    between atoms: _396  and  _398
REMARK  162  A    between atoms: _398  and  _399
REMARK  163  A    between atoms: _398  and  _401
REMARK  164  A    between atoms: _401  and  _402
REMARK  165  A    between atoms: _407  and  _409
REMARK  166  A    between atoms: _409  and  _410
REMARK  167  A    between atoms: _409  and  _412
REMARK  168  A    between atoms: _412  and  _413
REMARK  169  A    between atoms: _416  and  _418
REMARK  170  A    between atoms: _418  and  _419
REMARK  171  A    between atoms: _422  and  _424
REMARK  172  A    between atoms: _424  and  _425
REMARK  173  A    between atoms: _424  and  _427
REMARK  174  A    between atoms: _427  and  _428
REMARK  175  A    between atoms: _428  and  _429
REMARK  176  A    between atoms: _431  and  _433
REMARK  177  A    between atoms: _433  and  _434
REMARK  178  A    between atoms: _436  and  _438
REMARK  179  A    between atoms: _438  and  _439
REMARK  180  A    between atoms: _438  and  _441
REMARK  181  A    between atoms: _441  and  _442
REMARK  182  A    between atoms: _445  and  _447
REMARK  183  A    between atoms: _447  and  _448
REMARK  184  A    between atoms: _447  and  _450
REMARK  185  A    between atoms: _450  and  _451
REMARK  186  A    between atoms: _456  and  _458
REMARK  187  A    between atoms: _458  and  _459
REMARK  188  A    between atoms: _458  and  _461
REMARK  189  A    between atoms: _461  and  _462
REMARK  190  A    between atoms: _465  and  _467
REMARK  191  A    between atoms: _467  and  _468
REMARK  192  A    between atoms: _470  and  _472
REMARK  193  A    between atoms: _472  and  _473
REMARK  194  A    between atoms: _472  and  _475
REMARK  195  A    between atoms: _475  and  _476
REMARK  196  A    between atoms: _479  and  _481
REMARK  197  A    between atoms: _481  and  _482
REMARK  198  A    between atoms: _481  and  _484
REMARK  199  A    between atoms: _484  and  _485
REMARK  200  A    between atoms: _487  and  _489
REMARK  201  A    between atoms: _489  and  _490
REMARK  202  A    between atoms: _489  and  _492
REMARK  203  A    between atoms: _492  and  _493
REMARK  204  A    between atoms: _498  and  _500
REMARK  205  A    between atoms: _500  and  _501
REMARK  206  A    between atoms: _500  and  _503
REMARK  207  A    between atoms: _503  and  _504
REMARK  208  A    between atoms: _504  and  _505
REMARK  209  A    between atoms: _510  and  _512
REMARK  210  A    between atoms: _512  and  _513
REMARK  211  A    between atoms: _512  and  _515
REMARK  212  A    between atoms: _515  and  _516
REMARK  213  A    between atoms: _522  and  _524
REMARK  214  A    between atoms: _524  and  _525
REMARK  215  A    between atoms: _528  and  _530
REMARK  216  A    between atoms: _530  and  _531
REMARK  217  A    between atoms: _530  and  _533
REMARK  218  A    between atoms: _533  and  _534
REMARK  219  A    between atoms: _537  and  _539
REMARK  220  A    between atoms: _539  and  _540
REMARK  221  A    between atoms: _539  and  _542
REMARK  222  A    between atoms: _545  and  _547
REMARK  223  A    between atoms: _547  and  _548
REMARK  224  A    between atoms: _547  and  _550
REMARK  225  A    between atoms: _550  and  _551
REMARK  226  A    between atoms: _554  and  _556
REMARK  227  A    between atoms: _566  and  _569
REMARK  228  A    between atoms: _569  and  _570
REMARK  229  A    between atoms: _570  and  _571
REMARK  230  A    between atoms: _575  and  _576
REMARK  231  A    between atoms: _579  and  _581
REMARK  232  A    between atoms: _585  and  _586
REMARK  233  A    between atoms: _591  and  _593
REMARK  234  A    between atoms: _593  and  _594
REMARK  235  A    between atoms: _593  and  _596
REMARK  236  A    between atoms: _596  and  _597
REMARK  237  A    between atoms: _597  and  _598
REMARK  238  A    between atoms: _598  and  _599
REMARK  239  A    between atoms: _608  and  _610
REMARK  240  A    between atoms: _610  and  _611
REMARK  241  A    between atoms: _610  and  _613
REMARK  242  A    between atoms: _616  and  _618
REMARK  243  A    between atoms: _618  and  _619
REMARK  244  A    between atoms: _618  and  _621
REMARK  245  A    between atoms: _621  and  _622
REMARK  246  A    between atoms: _624  and  _626
REMARK  247  A    between atoms: _626  and  _627
REMARK  248  A    between atoms: _626  and  _629
REMARK  249  A    between atoms: _629  and  _630
REMARK  250  A    between atoms: _630  and  _631
REMARK  251  A    between atoms: _631  and  _632
REMARK  252  A    between atoms: _641  and  _643
REMARK  253  A    between atoms: _643  and  _644
REMARK  254  A    between atoms: _643  and  _646
REMARK  255  A    between atoms: _646  and  _647
REMARK  256  A    between atoms: _649  and  _651
REMARK  257  A    between atoms: _651  and  _652
REMARK  258  A    between atoms: _651  and  _654
REMARK  259  A    between atoms: _654  and  _655
REMARK  260  A    between atoms: _658  and  _660
REMARK  261  A    between atoms: _660  and  _661
REMARK  262  A    between atoms: _660  and  _663
REMARK  263  A    between atoms: _663  and  _664
REMARK  264  A    between atoms: _667  and  _669
REMARK  265  A    between atoms: _669  and  _670
REMARK  266  A    between atoms: _669  and  _672
REMARK  267  A    between atoms: _672  and  _673
REMARK  268  A    between atoms: _673  and  _674
REMARK  269  A    between atoms: _679  and  _681
REMARK  270  A    between atoms: _681  and  _682
REMARK  271  A    between atoms: _681  and  _684
REMARK  272  A    between atoms: _684  and  _685
REMARK  273  A    between atoms: _685  and  _686
REMARK  274  A    between atoms: _688  and  _690
REMARK  275  A    between atoms: _690  and  _691
REMARK  276  A    between atoms: _690  and  _693
REMARK  277  A    between atoms: _693  and  _694
REMARK  278  A    between atoms: _694  and  _695
REMARK  279  A    between atoms: _695  and  _696
REMARK  280  A    between atoms: _696  and  _697
REMARK                            x       y       z     vdW  Elec       q    Type
REMARK                         _______ _______ _______ _____ _____    ______ ____
ROOT
ATOM      1  CB  ASN A   1      21.980  32.153  79.327  0.00  0.00    +0.110 C 
ENDROOT
BRANCH   1   2
ATOM      2  CG  ASN A   1      21.515  33.220  78.332  0.00  0.00    +0.221 C 
ATOM      3  ND2 ASN A   1      22.298  34.292  78.207  0.00  0.00    -0.329 N 
ATOM      4 HD21 ASN A   1      23.151  34.384  78.794  0.00  0.00    +0.145 HD
ATOM      5 HD22 ASN A   1      22.055  35.036  77.522  0.00  0.00    +0.145 HD
ATOM      6  OD1 ASN A   1      20.486  33.066  77.653  0.00  0.00    -0.275 OA
ENDBRANCH   1   2
BRANCH   1   7
ATOM      7  CA  ASN A   1      21.351  32.237  80.747  0.00  0.00    +0.142 C 
BRANCH   7   8
ATOM      8  N   ASN A   1      21.654  31.040  81.485  0.00  0.00    -0.239 NA
ATOM      9  H   ASN A   1      21.492  30.130  81.009  0.00  0.00    +0.142 HD
ENDBRANCH   7   8
BRANCH   7  10
ATOM     10  C   ASN A   1      19.840  32.327  80.576  0.00  0.00    +0.225 C 
ATOM     11  O   ASN A   1      19.207  31.368  80.136  0.00  0.00    -0.287 OA
ENDBRANCH   7  10
ENDBRANCH   1   7
TORSDOF 4
REMARK  Name = ../refined-set-2016/1bxr/1bxr_pocket.pdb
REMARK  280 active torsions:
REMARK  status: ('A' for Active; 'I' for Inactive)
REMARK    1  A    between atoms: _1  and  _3
REMARK    2  A    between atoms: _3  and  _4
REMARK    3  A    between atoms: _6  and  _8
REMARK    4  A    between atoms: _8  and  _9
REMARK    5  A    between atoms: _8  and  _11
REMARK    6  A    between atoms: _11  and  _12
REMARK    7  A    between atoms: _12  and  _13
REMARK    8  A    between atoms: _18  and  _20
REMARK    9  A    between atoms: _20  and  _21
REMARK   10  A    between atoms: _20  and  _23
REMARK   11  A    between atoms: _23  and  _24
REMARK   12  A    between atoms: _30  and  _32
REMARK   13  A    between atoms: _32  and  _33
REMARK   14  A    between atoms: _32  and  _35
REMARK   15  A    between atoms: _35  and  _36
REMARK   16  A    between atoms: _36  and  _37
REMARK   17  A    between atoms: _42  and  _44
REMARK   18  A    between atoms: _44  and  _45
REMARK   19  A    between atoms: _48  and  _50
REMARK   20  A    between atoms: _50  and  _51
REMARK   21  A    between atoms: _50  and  _53
REMARK   22  A    between atoms: _53  and  _54
REMARK   23  A    between atoms: _54  and  _55
REMARK   24  A    between atoms: _58  and  _60
REMARK   25  A    between atoms: _60  and  _61
REMARK   26  A    between atoms: _60  and  _63
REMARK   27  A    between atoms: _63  and  _64
REMARK   28  A    between atoms: _65  and  _66
REMARK   29  A    between atoms: _75  and  _77
REMARK   30  A    between atoms: _77  and  _78
REMARK   31  A    between atoms: _77  and  _80
REMARK   32  A    between atoms: _80  and  _81
REMARK   33  A    between atoms: _84  and  _86
REMARK   34  A    between atoms: _86  and  _87
REMARK   35  A    between atoms: _90  and  _92
REMARK   36  A    between atoms: _92  and  _93
REMARK   37  A    between atoms: _92  and  _95
REMARK   38  A    between atoms: _95  and  _96
REMARK   39  A    between atoms: _96  and  _97
REMARK   40  A    between atoms: _97  and  _98
REMARK   41  A    between atoms: _107  and  _109
REMARK   42  A    between atoms: _109  and  _110
REMARK   43  A    between atoms: _109  and  _112
REMARK   44  A    between atoms: _112  and  _113
REMARK   45  A    between atoms: _116  and  _117
REMARK   46  A    between atoms: _122  and  _124
REMARK   47  A    between atoms: _124  and  _125
REMARK   48  A    between atoms: _124  and  _127
REMARK   49  A    between atoms: _129  and  _131
REMARK   50  A    between atoms: _131  and  _132
REMARK   51  A    between atoms: _131  and  _134
REMARK   52  A    between atoms: _134  and  _135
REMARK   53  A    between atoms: _138  and  _140
REMARK   54  A    between atoms: _140  and  _141
REMARK   55  A    between atoms: _140  and  _143
REMARK   56  A    between atoms: _143  and  _144
REMARK   57  A    between atoms: _147  and  _149
REMARK   58  A    between atoms: _149  and  _150
REMARK   59  A    between atoms: _149  and  _152
REMARK   60  A    between atoms: _152  and  _153
REMARK   61  A    between atoms: _153  and  _154
REMARK   62  A    between atoms: _154  and  _155
REMARK   63  A    between atoms: _165  and  _166
REMARK   64  A    between atoms: _171  and  _173
REMARK   65  A    between atoms: _173  and  _174
REMARK   66  A    between atoms: _173  and  _176
REMARK   67  A    between atoms: _176  and  _177
REMARK   68  A    between atoms: _179  and  _181
REMARK   69  A    between atoms: _181  and  _182
REMARK   70  A    between atoms: _181  and  _184
REMARK   71  A    between atoms: _184  and  _185
REMARK   72  A    between atoms: _191  and  _193
REMARK   73  A    between atoms: _193  and  _194
REMARK   74  A    between atoms: _193  and  _196
REMARK   75  A    between atoms: _196  and  _197
REMARK   76  A    between atoms: _200  and  _202
REMARK   77  A    between atoms: _202  and  _203
REMARK   78  A    between atoms: _202  and  _205
REMARK   79  A    between atoms: _205  and  _206
REMARK   80  A    between atoms: _206  and  _207
REMARK   81  A    between atoms: _209  and  _211
REMARK   82  A    between atoms: _211  and  _212
REMARK   83  A    between atoms: _214  and  _216
REMARK   84  A    between atoms: _216  and  _217
REMARK   85  A    between atoms: _219  and  _221
REMARK   86  A    between atoms: _221  and  _222
REMARK   87  A    between atoms: _221  and  _224
REMARK   88  A    between atoms: _224  and  _225
REMARK   89  A    between atoms: _227  and  _229
REMARK   90  A    between atoms: _229  and  _230
REMARK   91  A    between atoms: _232  and  _234
REMARK   92  A    between atoms: _234  and  _235
REMARK   93  A    between atoms: _237  and  _239
REMARK   94  A    between atoms: _239  and  _240
REMARK   95  A    between atoms: _242  and  _244
REMARK   96  A    between atoms: _244  and  _245
REMARK   97  A    between atoms: _244  and  _247
REMARK   98  A    between atoms: _247  and  _248
REMARK   99  A    between atoms: _251  and  _253
REMARK  100  A    between atoms: _253  and  _254
REMARK  101  A    between atoms: _253  and  _256
REMARK  102  A    between atoms: _256  and  _257
REMARK  103  A    between atoms: _262  and  _263
REMARK  104  A    between atoms: _265  and  _267
REMARK  105  A    between atoms: _267  and  _268
REMARK  106  A    between atoms: _267  and  _270
REMARK  107  A    between atoms: _270  and  _271
REMARK  108  A    between atoms: _274  and  _276
REMARK  109  A    between atoms: _276  and  _277
REMARK  110  A    between atoms: _276  and  _279
REMARK  111  A    between atoms: _279  and  _280
REMARK  112  A    between atoms: _283  and  _285
REMARK  113  A    between atoms: _285  and  _286
REMARK  114  A    between atoms: _285  and  _288
REMARK  115  A    between atoms: _288  and  _289
REMARK  116  A    between atoms: _292  and  _294
REMARK  117  A    between atoms: _294  and  _295
REMARK  118  A    between atoms: _294  and  _297
REMARK  119  A    between atoms: _297  and  _298
REMARK  120  A    between atoms: _298  and  _299
REMARK  121  A    between atoms: _302  and  _304
REMARK  122  A    between atoms: _304  and  _305
REMARK  123  A    between atoms: _304  and  _307
REMARK  124  A    between atoms: _307  and  _308
REMARK  125  A    between atoms: _310  and  _312
REMARK  126  A    between atoms: _312  and  _313
REMARK  127  A    between atoms: _312  and  _315
REMARK  128  A    between atoms: _315  and  _316
REMARK  129  A    between atoms: _319  and  _321
REMARK  130  A    between atoms: _321  and  _322
REMARK  131  A    between atoms: _321  and  _324
REMARK  132  A    between atoms: _324  and  _325
REMARK  133  A    between atoms: _328  and  _330
REMARK  134  A    between atoms: _330  and  _331
REMARK  135  A    between atoms: _333  and  _335
REMARK  136  A    between atoms: _335  and  _336
REMARK  137  A    between atoms: _335  and  _338
REMARK  138  A    between atoms: _338  and  _339
REMARK  139  A    between atoms: _349  and  _351
REMARK  140  A    between atoms: _351  and  _352
REMARK  141  A    between atoms: _351  and  _354
REMARK  142  A    between atoms: _354  and  _355
REMARK  143  A    between atoms: _355  and  _356
REMARK  144  A    between atoms: _356  and  _357
REMARK  145  A    between atoms: _357  and  _358
REMARK  146  A    between atoms: _362  and  _364
REMARK  147  A    between atoms: _364  and  _365
REMARK  148  A    between atoms: _364  and  _367
REMARK  149  A    between atoms: _367  and  _368
REMARK  150  A    between atoms: _368  and  _369
REMARK  151  A    between atoms: _372  and  _374
REMARK  152  A    between atoms: _374  and  _375
REMARK  153  A    between atoms: _374  and  _377
REMARK  154  A    between atoms: _377  and  _378
REMARK  155  A    between atoms: _383  and  _384
REMARK  156  A    between atoms: _386  and  _388
REMARK  157  A    between atoms: _388  and  _389
REMARK  158  A    between atoms: _388  and  _391
REMARK  159  A    between atoms: _391  and  _392
REMARK  160  A    between atoms: _392  and  _393
REMARK  161  A    between atoms: _396  and  _398
REMARK  162  A    between atoms: _398  and  _399
REMARK  163  A    between atoms: _398  and  _401
REMARK  164  A    between atoms: _401  and  _402
REMARK  165  A    between atoms: _407  and  _409
REMARK  166  A    between atoms: _409  and  _410
REMARK  167  A    between atoms: _409  and  _412
REMARK  168  A    between atoms: _412  and  _413
REMARK  169  A    between atoms: _416  and  _418
REMARK  170  A    between atoms: _418  and  _419
REMARK  171  A    between atoms: _422  and  _424
REMARK  172  A    between atoms: _424  and  _425
REMARK  173  A    between atoms: _424  and  _427
REMARK  174  A    between atoms: _427  and  _428
REMARK  175  A    between atoms: _428  and  _429
REMARK  176  A    between atoms: _431  and  _433
REMARK  177  A    between atoms: _433  and  _434
REMARK  178  A    between atoms: _436  and  _438
REMARK  179  A    between atoms: _438  and  _439
REMARK  180  A    between atoms: _438  and  _441
REMARK  181  A    between atoms: _441  and  _442
REMARK  182  A    between atoms: _445  and  _447
REMARK  183  A    between atoms: _447  and  _448
REMARK  184  A    between atoms: _447  and  _450
REMARK  185  A    between atoms: _450  and  _451
REMARK  186  A    between atoms: _456  and  _458
REMARK  187  A    between atoms: _458  and  _459
REMARK  188  A    between atoms: _458  and  _461
REMARK  189  A    between atoms: _461  and  _462
REMARK  190  A    between atoms: _465  and  _467
REMARK  191  A    between atoms: _467  and  _468
REMARK  192  A    between atoms: _470  and  _472
REMARK  193  A    between atoms: _472  and  _473
REMARK  194  A    between atoms: _472  and  _475
REMARK  195  A    between atoms: _475  and  _476
REMARK  196  A    between atoms: _479  and  _481
REMARK  197  A    between atoms: _481  and  _482
REMARK  198  A    between atoms: _481  and  _484
REMARK  199  A    between atoms: _484  and  _485
REMARK  200  A    between atoms: _487  and  _489
REMARK  201  A    between atoms: _489  and  _490
REMARK  202  A    between atoms: _489  and  _492
REMARK  203  A    between atoms: _492  and  _493
REMARK  204  A    between atoms: _498  and  _500
REMARK  205  A    between atoms: _500  and  _501
REMARK  206  A    between atoms: _500  and  _503
REMARK  207  A    between atoms: _503  and  _504
REMARK  208  A    between atoms: _504  and  _505
REMARK  209  A    between atoms: _510  and  _512
REMARK  210  A    between atoms: _512  and  _513
REMARK  211  A    between atoms: _512  and  _515
REMARK  212  A    between atoms: _515  and  _516
REMARK  213  A    between atoms: _522  and  _524
REMARK  214  A    between atoms: _524  and  _525
REMARK  215  A    between atoms: _528  and  _530
REMARK  216  A    between atoms: _530  and  _531
REMARK  217  A    between atoms: _530  and  _533
REMARK  218  A    between atoms: _533  and  _534
REMARK  219  A    between atoms: _537  and  _539
REMARK  220  A    between atoms: _539  and  _540
REMARK  221  A    between atoms: _539  and  _542
REMARK  222  A    between atoms: _545  and  _547
REMARK  223  A    between atoms: _547  and  _548
REMARK  224  A    between atoms: _547  and  _550
REMARK  225  A    between atoms: _550  and  _551
REMARK  226  A    between atoms: _554  and  _556
REMARK  227  A    between atoms: _566  and  _569
REMARK  228  A    between atoms: _569  and  _570
REMARK  229  A    between atoms: _570  and  _571
REMARK  230  A    between atoms: _575  and  _576
REMARK  231  A    between atoms: _579  and  _581
REMARK  232  A    between atoms: _585  and  _586
REMARK  233  A    between atoms: _591  and  _593
REMARK  234  A    between atoms: _593  and  _594
REMARK  235  A    between atoms: _593  and  _596
REMARK  236  A    between atoms: _596  and  _597
REMARK  237  A    between atoms: _597  and  _598
REMARK  238  A    between atoms: _598  and  _599
REMARK  239  A    between atoms: _608  and  _610
REMARK  240  A    between atoms: _610  and  _611
REMARK  241  A    between atoms: _610  and  _613
REMARK  242  A    between atoms: _616  and  _618
REMARK  243  A    between atoms: _618  and  _619
REMARK  244  A    between atoms: _618  and  _621
REMARK  245  A    between atoms: _621  and  _622
REMARK  246  A    between atoms: _624  and  _626
REMARK  247  A    between atoms: _626  and  _627
REMARK  248  A    between atoms: _626  and  _629
REMARK  249  A    between atoms: _629  and  _630
REMARK  250  A    between atoms: _630  and  _631
REMARK  251  A    between atoms: _631  and  _632
REMARK  252  A    between atoms: _641  and  _643
REMARK  253  A    between atoms: _643  and  _644
REMARK  254  A    between atoms: _643  and  _646
REMARK  255  A    between atoms: _646  and  _647
REMARK  256  A    between atoms: _649  and  _651
REMARK  257  A    between atoms: _651  and  _652
REMARK  258  A    between atoms: _651  and  _654
REMARK  259  A    between atoms: _654  and  _655
REMARK  260  A    between atoms: _658  and  _660
REMARK  261  A    between atoms: _660  and  _661
REMARK  262  A    between atoms: _660  and  _663
REMARK  263  A    between atoms: _663  and  _664
REMARK  264  A    between atoms: _667  and  _669
REMARK  265  A    between atoms: _669  and  _670
REMARK  266  A    between atoms: _669  and  _672
REMARK  267  A    between atoms: _672  and  _673
REMARK  268  A    between atoms: _673  and  _674
REMARK  269  A    between atoms: _679  and  _681
REMARK  270  A    between atoms: _681  and  _682
REMARK  271  A    between atoms: _681  and  _684
REMARK  272  A    between atoms: _684  and  _685
REMARK  273  A    between atoms: _685  and  _686
REMARK  274  A    between atoms: _688  and  _690
REMARK  275  A    between atoms: _690  and  _691
REMARK  276  A    between atoms: _690  and  _693
REMARK  277  A    between atoms: _693  and  _694
REMARK  278  A    between atoms: _694  and  _695
REMARK  279  A    between atoms: _695  and  _696
REMARK  280  A    between atoms: _696  and  _697
REMARK                            x       y       z     vdW  Elec       q    Type
REMARK                         _______ _______ _______ _____ _____    ______ ____
ROOT
ATOM      1  CA  PHE A   2      14.206  38.515  77.537  0.00  0.00    +0.153 C 
ENDROOT
BRANCH   1   4
ATOM      2  C   GLN A   1      15.489  36.473  77.785  0.00  0.00    +0.238 C 
ATOM      3  O   GLN A   1      14.482  35.792  77.939  0.00  0.00    -0.274 OA
ATOM      4  N   PHE A   2      15.458  37.784  77.522  0.00  0.00    -0.297 N 
ATOM      5  H   PHE A   2      16.343  38.285  77.304  0.00  0.00    +0.150 HD
BRANCH   2   6
ATOM      6  CA  GLN A   1      16.845  35.814  77.723  0.00  0.00    +0.145 C 
BRANCH   6   7
ATOM      7  N   GLN A   1      16.999  34.681  78.624  0.00  0.00    -0.238 NA
ATOM      8  H   GLN A   1      16.588  33.754  78.394  0.00  0.00    +0.142 HD
ENDBRANCH   6   7
BRANCH   6   9
ATOM      9  CB  GLN A   1      17.017  35.497  76.254  0.00  0.00    +0.036 C 
BRANCH   9  10
ATOM     10  CG  GLN A   1      17.929  34.348  75.921  0.00  0.00    +0.087 C 
BRANCH  10  11
ATOM     11  CD  GLN A   1      17.753  34.192  74.431  0.00  0.00    +0.219 C 
ATOM     12  OE1 GLN A   1      17.730  33.111  73.938  0.00  0.00    -0.275 OA
ATOM     13  NE2 GLN A   1      17.465  35.313  73.761  0.00  0.00    -0.329 N 
ATOM     14 HE21 GLN A   1      17.502  36.232  74.246  0.00  0.00    +0.145 HD
ATOM     15 HE22 GLN A   1      17.204  35.265  72.755  0.00  0.00    +0.145 HD
ENDBRANCH  10  11
ENDBRANCH   9  10
ENDBRANCH   6   9
ENDBRANCH   2   6
ENDBRANCH   1   4
BRANCH   1  16
ATOM     16  C   PHE A   2      14.026  39.487  76.390  0.00  0.00    +0.241 C 
ATOM     17  N   ALA A   3      12.766  39.887  76.141  0.00  0.00    -0.298 N 
ATOM     18  H   ALA A   3      11.995  39.431  76.670  0.00  0.00    +0.150 HD
ATOM     19  O   PHE A   2      15.002  39.928  75.809  0.00  0.00    -0.273 OA
BRANCH  17  20
ATOM     20  CA  ALA A   3      12.413  40.926  75.169  0.00  0.00    +0.137 C 
ATOM     21  CB  ALA A   3      11.530  40.475  74.012  0.00  0.00    +0.030 C 
BRANCH  20  22
ATOM     22  C   ALA A   3      11.772  42.080  75.932  0.00  0.00    +0.227 C 
ATOM     23  O   ALA A   3      11.028  41.867  76.897  0.00  0.00    -0.286 OA
ENDBRANCH  20  22
ENDBRANCH  17  20
ENDBRANCH   1  16
BRANCH   1  24
ATOM     24  CB  PHE A   2      14.192  39.400  78.774  0.00  0.00    +0.055 C 
BRANCH  24  25
ATOM     25  CG  PHE A   2      14.277  38.653  80.068  0.00  0.00    -0.020 A 
ATOM     26  CD2 PHE A   2      13.083  38.325  80.712  0.00  0.00    -0.004 A 
ATOM     27  CE2 PHE A   2      13.090  37.640  81.928  0.00  0.00    -0.000 A 
ATOM     28  CZ  PHE A   2      14.311  37.300  82.516  0.00  0.00    -0.000 A 
ATOM     29  CE1 PHE A   2      15.517  37.638  81.895  0.00  0.00    -0.000 A 
ATOM     30  CD1 PHE A   2      15.493  38.317  80.672  0.00  0.00    -0.004 A 
ENDBRANCH  24  25
ENDBRANCH   1  24
TORSDOF 11
REMARK  Name = ../refined-set-2016/1bxr/1bxr_pocket.pdb
REMARK  280 active torsions:
REMARK  status: ('A' for Active; 'I' for Inactive)
REMARK    1  A    between atoms: _1  and  _3
REMARK    2  A    between atoms: _3  and  _4
REMARK    3  A    between atoms: _6  and  _8
REMARK    4  A    between atoms: _8  and  _9
REMARK    5  A    between atoms: _8  and  _11
REMARK    6  A    between atoms: _11  and  _12
REMARK    7  A    between atoms: _12  and  _13
REMARK    8  A    between atoms: _18  and  _20
REMARK    9  A    between atoms: _20  and  _21
REMARK   10  A    between atoms: _20  and  _23
REMARK   11  A    between atoms: _23  and  _24
REMARK   12  A    between atoms: _30  and  _32
REMARK   13  A    between atoms: _32  and  _33
REMARK   14  A    between atoms: _32  and  _35
REMARK   15  A    between atoms: _35  and  _36
REMARK   16  A    between atoms: _36  and  _37
REMARK   17  A    between atoms: _42  and  _44
REMARK   18  A    between atoms: _44  and  _45
REMARK   19  A    between atoms: _48  and  _50
REMARK   20  A    between atoms: _50  and  _51
REMARK   21  A    between atoms: _50  and  _53
REMARK   22  A    between atoms: _53  and  _54
REMARK   23  A    between atoms: _54  and  _55
REMARK   24  A    between atoms: _58  and  _60
REMARK   25  A    between atoms: _60  and  _61
REMARK   26  A    between atoms: _60  and  _63
REMARK   27  A    between atoms: _63  and  _64
REMARK   28  A    between atoms: _65  and  _66
REMARK   29  A    between atoms: _75  and  _77
REMARK   30  A    between atoms: _77  and  _78
REMARK   31  A    between atoms: _77  and  _80
REMARK   32  A    between atoms: _80  and  _81
REMARK   33  A    between atoms: _84  and  _86
REMARK   34  A    between atoms: _86  and  _87
REMARK   35  A    between atoms: _90  and  _92
REMARK   36  A    between atoms: _92  and  _93
REMARK   37  A    between atoms: _92  and  _95
REMARK   38  A    between atoms: _95  and  _96
REMARK   39  A    between atoms: _96  and  _97
REMARK   40  A    between atoms: _97  and  _98
REMARK   41  A    between atoms: _107  and  _109
REMARK   42  A    between atoms: _109  and  _110
REMARK   43  A    between atoms: _109  and  _112
REMARK   44  A    between atoms: _112  and  _113
REMARK   45  A    between atoms: _116  and  _117
REMARK   46  A    between atoms: _122  and  _124
REMARK   47  A    between atoms: _124  and  _125
REMARK   48  A    between atoms: _124  and  _127
REMARK   49  A    between atoms: _129  and  _131
REMARK   50  A    between atoms: _131  and  _132
REMARK   51  A    between atoms: _131  and  _134
REMARK   52  A    between atoms: _134  and  _135
REMARK   53  A    between atoms: _138  and  _140
REMARK   54  A    between atoms: _140  and  _141
REMARK   55  A    between atoms: _140  and  _143
REMARK   56  A    between atoms: _143  and  _144
REMARK   57  A    between atoms: _147  and  _149
REMARK   58  A    between atoms: _149  and  _150
REMARK   59  A    between atoms: _149  and  _152
REMARK   60  A    between atoms: _152  and  _153
REMARK   61  A    between atoms: _153  and  _154
REMARK   62  A    between atoms: _154  and  _155
REMARK   63  A    between atoms: _165  and  _166
REMARK   64  A    between atoms: _171  and  _173
REMARK   65  A    between atoms: _173  and  _174
REMARK   66  A    between atoms: _173  and  _176
REMARK   67  A    between atoms: _176  and  _177
REMARK   68  A    between atoms: _179  and  _181
REMARK   69  A    between atoms: _181  and  _182
REMARK   70  A    between atoms: _181  and  _184
REMARK   71  A    between atoms: _184  and  _185
REMARK   72  A    between atoms: _191  and  _193
REMARK   73  A    between atoms: _193  and  _194
REMARK   74  A    between atoms: _193  and  _196
REMARK   75  A    between atoms: _196  and  _197
REMARK   76  A    between atoms: _200  and  _202
REMARK   77  A    between atoms: _202  and  _203
REMARK   78  A    between atoms: _202  and  _205
REMARK   79  A    between atoms: _205  and  _206
REMARK   80  A    between atoms: _206  and  _207
REMARK   81  A    between atoms: _209  and  _211
REMARK   82  A    between atoms: _211  and  _212
REMARK   83  A    between atoms: _214  and  _216
REMARK   84  A    between atoms: _216  and  _217
REMARK   85  A    between atoms: _219  and  _221
REMARK   86  A    between atoms: _221  and  _222
REMARK   87  A    between atoms: _221  and  _224
REMARK   88  A    between atoms: _224  and  _225
REMARK   89  A    between atoms: _227  and  _229
REMARK   90  A    between atoms: _229  and  _230
REMARK   91  A    between atoms: _232  and  _234
REMARK   92  A    between atoms: _234  and  _235
REMARK   93  A    between atoms: _237  and  _239
REMARK   94  A    between atoms: _239  and  _240
REMARK   95  A    between atoms: _242  and  _244
REMARK   96  A    between atoms: _244  and  _245
REMARK   97  A    between atoms: _244  and  _247
REMARK   98  A    between atoms: _247  and  _248
REMARK   99  A    between atoms: _251  and  _253
REMARK  100  A    between atoms: _253  and  _254
REMARK  101  A    between atoms: _253  and  _256
REMARK  102  A    between atoms: _256  and  _257
REMARK  103  A    between atoms: _262  and  _263
REMARK  104  A    between atoms: _265  and  _267
REMARK  105  A    between atoms: _267  and  _268
REMARK  106  A    between atoms: _267  and  _270
REMARK  107  A    between atoms: _270  and  _271
REMARK  108  A    between atoms: _274  and  _276
REMARK  109  A    between atoms: _276  and  _277
REMARK  110  A    between atoms: _276  and  _279
REMARK  111  A    between atoms: _279  and  _280
REMARK  112  A    between atoms: _283  and  _285
REMARK  113  A    between atoms: _285  and  _286
REMARK  114  A    between atoms: _285  and  _288
REMARK  115  A    between atoms: _288  and  _289
REMARK  116  A    between atoms: _292  and  _294
REMARK  117  A    between atoms: _294  and  _295
REMARK  118  A    between atoms: _294  and  _297
REMARK  119  A    between atoms: _297  and  _298
REMARK  120  A    between atoms: _298  and  _299
REMARK  121  A    between atoms: _302  and  _304
REMARK  122  A    between atoms: _304  and  _305
REMARK  123  A    between atoms: _304  and  _307
REMARK  124  A    between atoms: _307  and  _308
REMARK  125  A    between atoms: _310  and  _312
REMARK  126  A    between atoms: _312  and  _313
REMARK  127  A    between atoms: _312  and  _315
REMARK  128  A    between atoms: _315  and  _316
REMARK  129  A    between atoms: _319  and  _321
REMARK  130  A    between atoms: _321  and  _322
REMARK  131  A    between atoms: _321  and  _324
REMARK  132  A    between atoms: _324  and  _325
REMARK  133  A    between atoms: _328  and  _330
REMARK  134  A    between atoms: _330  and  _331
REMARK  135  A    between atoms: _333  and  _335
REMARK  136  A    between atoms: _335  and  _336
REMARK  137  A    between atoms: _335  and  _338
REMARK  138  A    between atoms: _338  and  _339
REMARK  139  A    between atoms: _349  and  _351
REMARK  140  A    between atoms: _351  and  _352
REMARK  141  A    between atoms: _351  and  _354
REMARK  142  A    between atoms: _354  and  _355
REMARK  143  A    between atoms: _355  and  _356
REMARK  144  A    between atoms: _356  and  _357
REMARK  145  A    between atoms: _357  and  _358
REMARK  146  A    between atoms: _362  and  _364
REMARK  147  A    between atoms: _364  and  _365
REMARK  148  A    between atoms: _364  and  _367
REMARK  149  A    between atoms: _367  and  _368
REMARK  150  A    between atoms: _368  and  _369
REMARK  151  A    between atoms: _372  and  _374
REMARK  152  A    between atoms: _374  and  _375
REMARK  153  A    between atoms: _374  and  _377
REMARK  154  A    between atoms: _377  and  _378
REMARK  155  A    between atoms: _383  and  _384
REMARK  156  A    between atoms: _386  and  _388
REMARK  157  A    between atoms: _388  and  _389
REMARK  158  A    between atoms: _388  and  _391
REMARK  159  A    between atoms: _391  and  _392
REMARK  160  A    between atoms: _392  and  _393
REMARK  161  A    between atoms: _396  and  _398
REMARK  162  A    between atoms: _398  and  _399
REMARK  163  A    between atoms: _398  and  _401
REMARK  164  A    between atoms: _401  and  _402
REMARK  165  A    between atoms: _407  and  _409
REMARK  166  A    between atoms: _409  and  _410
REMARK  167  A    between atoms: _409  and  _412
REMARK  168  A    between atoms: _412  and  _413
REMARK  169  A    between atoms: _416  and  _418
REMARK  170  A    between atoms: _418  and  _419
REMARK  171  A    between atoms: _422  and  _424
REMARK  172  A    between atoms: _424  and  _425
REMARK  173  A    between atoms: _424  and  _427
REMARK  174  A    between atoms: _427  and  _428
REMARK  175  A    between atoms: _428  and  _429
REMARK  176  A    between atoms: _431  and  _433
REMARK  177  A    between atoms: _433  and  _434
REMARK  178  A    between atoms: _436  and  _438
REMARK  179  A    between atoms: _438  and  _439
REMARK  180  A    between atoms: _438  and  _441
REMARK  181  A    between atoms: _441  and  _442
REMARK  182  A    between atoms: _445  and  _447
REMARK  183  A    between atoms: _447  and  _448
REMARK  184  A    between atoms: _447  and  _450
REMARK  185  A    between atoms: _450  and  _451
REMARK  186  A    between atoms: _456  and  _458
REMARK  187  A    between atoms: _458  and  _459
REMARK  188  A    between atoms: _458  and  _461
REMARK  189  A    between atoms: _461  and  _462
REMARK  190  A    between atoms: _465  and  _467
REMARK  191  A    between atoms: _467  and  _468
REMARK  192  A    between atoms: _470  and  _472
REMARK  193  A    between atoms: _472  and  _473
REMARK  194  A    between atoms: _472  and  _475
REMARK  195  A    between atoms: _475  and  _476
REMARK  196  A    between atoms: _479  and  _481
REMARK  197  A    between atoms: _481  and  _482
REMARK  198  A    between atoms: _481  and  _484
REMARK  199  A    between atoms: _484  and  _485
REMARK  200  A    between atoms: _487  and  _489
REMARK  201  A    between atoms: _489  and  _490
REMARK  202  A    between atoms: _489  and  _492
REMARK  203  A    between atoms: _492  and  _493
REMARK  204  A    between atoms: _498  and  _500
REMARK  205  A    between atoms: _500  and  _501
REMARK  206  A    between atoms: _500  and  _503
REMARK  207  A    between atoms: _503  and  _504
REMARK  208  A    between atoms: _504  and  _505
REMARK  209  A    between atoms: _510  and  _512
REMARK  210  A    between atoms: _512  and  _513
REMARK  211  A    between atoms: _512  and  _515
REMARK  212  A    between atoms: _515  and  _516
REMARK  213  A    between atoms: _522  and  _524
REMARK  214  A    between atoms: _524  and  _525
REMARK  215  A    between atoms: _528  and  _530
REMARK  216  A    between atoms: _530  and  _531
REMARK  217  A    between atoms: _530  and  _533
REMARK  218  A    between atoms: _533  and  _534
REMARK  219  A    between atoms: _537  and  _539
REMARK  220  A    between atoms: _539  and  _540
REMARK  221  A    between atoms: _539  and  _542
REMARK  222  A    between atoms: _545  and  _547
REMARK  223  A    between atoms: _547  and  _548
REMARK  224  A    between atoms: _547  and  _550
REMARK  225  A    between atoms: _550  and  _551
REMARK  226  A    between atoms: _554  and  _556
REMARK  227  A    between atoms: _566  and  _569
REMARK  228  A    between atoms: _569  and  _570
REMARK  229  A    between atoms: _570  and  _571
REMARK  230  A    between atoms: _575  and  _576
REMARK  231  A    between atoms: _579  and  _581
REMARK  232  A    between atoms: _585  and  _586
REMARK  233  A    between atoms: _591  and  _593
REMARK  234  A    between atoms: _593  and  _594
REMARK  235  A    between atoms: _593  and  _596
REMARK  236  A    between atoms: _596  and  _597
REMARK  237  A    between atoms: _597  and  _598
REMARK  238  A    between atoms: _598  and  _599
REMARK  239  A    between atoms: _608  and  _610
REMARK  240  A    between atoms: _610  and  _611
REMARK  241  A    between atoms: _610  and  _613
REMARK  242  A    between atoms: _616  and  _618
REMARK  243  A    between atoms: _618  and  _619
REMARK  244  A    between atoms: _618  and  _621
REMARK  245  A    between atoms: _621  and  _622
REMARK  246  A    between atoms: _624  and  _626
REMARK  247  A    between atoms: _626  and  _627
REMARK  248  A    between atoms: _626  and  _629
REMARK  249  A    between atoms: _629  and  _630
REMARK  250  A    between atoms: _630  and  _631
REMARK  251  A    between atoms: _631  and  _632
REMARK  252  A    between atoms: _641  and  _643
REMARK  253  A    between atoms: _643  and  _644
REMARK  254  A    between atoms: _643  and  _646
REMARK  255  A    between atoms: _646  and  _647
REMARK  256  A    between atoms: _649  and  _651
REMARK  257  A    between atoms: _651  and  _652
REMARK  258  A    between atoms: _651  and  _654
REMARK  259  A    between atoms: _654  and  _655
REMARK  260  A    between atoms: _658  and  _660
REMARK  261  A    between atoms: _660  and  _661
REMARK  262  A    between atoms: _660  and  _663
REMARK  263  A    between atoms: _663  and  _664
REMARK  264  A    between atoms: _667  and  _669
REMARK  265  A    between atoms: _669  and  _670
REMARK  266  A    between atoms: _669  and  _672
REMARK  267  A    between atoms: _672  and  _673
REMARK  268  A    between atoms: _673  and  _674
REMARK  269  A    between atoms: _679  and  _681
REMARK  270  A    between atoms: _681  and  _682
REMARK  271  A    between atoms: _681  and  _684
REMARK  272  A    between atoms: _684  and  _685
REMARK  273  A    between atoms: _685  and  _686
REMARK  274  A    between atoms: _688  and  _690
REMARK  275  A    between atoms: _690  and  _691
REMARK  276  A    between atoms: _690  and  _693
REMARK  277  A    between atoms: _693  and  _694
REMARK  278  A    between atoms: _694  and  _695
REMARK  279  A    between atoms: _695  and  _696
REMARK  280  A    between atoms: _696  and  _697
REMARK                            x       y       z     vdW  Elec       q    Type
REMARK                         _______ _______ _______ _____ _____    ______ ____
ROOT
ATOM      1  C   UNK A   6      20.193  26.943  79.970  0.00  0.00    +0.000 C 
ATOM      2  O   UNK A   6      20.879  27.633  80.734  0.00  0.00    +0.000 OA
ATOM      3  N   PRO A   7      19.869  25.659  80.199  0.00  0.00    +0.000 N 
ATOM      4  CA  PRO A   7      20.303  24.999  81.412  0.00  0.00    +0.000 C 
ATOM      5  CB  PRO A   7      19.357  23.820  81.601  0.00  0.00    +0.000 C 
ATOM      6  CG  PRO A   7      18.828  23.493  80.209  0.00  0.00    +0.000 C 
ATOM      7  CD  PRO A   7      19.158  24.687  79.316  0.00  0.00    +0.000 C 
ENDROOT
BRANCH   1  16
ATOM      8  C   UNK A   4      13.975  31.180  76.976  0.00  0.00    +0.000 C 
ATOM      9  C   UNK A   4      15.018  31.131  78.059  0.00  0.00    +0.000 C 
ATOM     10  O   UNK A   4      15.369  32.157  78.660  0.00  0.00    +0.000 OA
ATOM     11  N   MET A   5      15.490  29.900  78.269  0.00  0.00    +0.000 N 
ATOM     12  CA  MET A   5      16.523  29.603  79.226  0.00  0.00    +0.000 C 
ATOM     13  C   MET A   5      17.419  28.473  78.727  0.00  0.00    +0.000 C 
ATOM     14  N   UNK A   6      18.688  28.588  79.068  0.00  0.00    +0.000 N 
ATOM     15  H   UNK A   6      19.010  29.422  79.599  0.00  0.00    +0.000 HD
ATOM     16  C   UNK A   6      19.629  27.558  78.705  0.00  0.00    +0.000 C 
ATOM     17  C   UNK A   6      20.716  28.098  77.778  0.00  0.00    +0.000 C 
ATOM     18  C   UNK A   6      20.086  28.577  76.494  0.00  0.00    +0.000 C 
ATOM     19  O   UNK A   6      19.416  27.808  75.770  0.00  0.00    +0.000 OA
ATOM     20 MN   UNK A   6      18.497  28.122  73.953  0.00  0.00    +0.000 Mn
ATOM     21  O   UNK A   6      18.104  30.143  75.058  0.00  0.00    +0.000 OA
ATOM     22  C   UNK A   6      16.829  29.980  74.855  0.00  0.00    +0.000 C 
ATOM     23  C   UNK A   6      16.016  31.036  75.507  0.00  0.00    +0.000 C 
ATOM     24  O   UNK A   6      16.333  29.063  74.235  0.00  0.00    +0.000 OA
ATOM     25  O   UNK A   6      18.281  25.752  73.926  0.00  0.00    +0.000 OA
ATOM     26  O   MET A   5      16.997  27.541  78.041  0.00  0.00    +0.000 OA
ATOM     27  H   MET A   5      15.091  29.117  77.713  0.00  0.00    +0.000 HD
ATOM     28  C   UNK A   4      14.572  30.572  75.703  0.00  0.00    +0.000 C 
BRANCH   8  30
ATOM     29  C   ILE A   3      12.609  32.763  75.804  0.00  0.00    +0.000 C 
ATOM     30  N   UNK A   4      13.507  32.520  76.743  0.00  0.00    +0.000 N 
ATOM     31  H   UNK A   4      13.878  33.303  77.318  0.00  0.00    +0.000 HD
ATOM     32  O   ILE A   3      12.154  31.913  75.053  0.00  0.00    +0.000 OA
BRANCH  29  33
ATOM     33  CA  ILE A   3      12.227  34.209  75.633  0.00  0.00    +0.000 C 
BRANCH  33  36
ATOM     34  C   VAL A   2      10.832  34.991  77.424  0.00  0.00    +0.000 C 
ATOM     35  O   VAL A   2       9.867  34.437  76.889  0.00  0.00    +0.000 OA
ATOM     36  N   ILE A   3      12.051  34.927  76.886  0.00  0.00    +0.000 N 
ATOM     37  H   ILE A   3      12.861  35.382  77.354  0.00  0.00    +0.000 HD
BRANCH  34  38
ATOM     38  CA  VAL A   2      10.670  35.771  78.736  0.00  0.00    +0.000 C 
BRANCH  38  40
ATOM     39  C   ILE A   1       9.844  37.952  78.106  0.00  0.00    +0.000 C 
ATOM     40  N   VAL A   2       9.609  36.752  78.624  0.00  0.00    +0.000 N 
ATOM     41  H   VAL A   2       8.652  36.513  78.953  0.00  0.00    +0.000 HD
ATOM     42  O   ILE A   1      10.945  38.326  77.748  0.00  0.00    +0.000 OA
BRANCH  39  43
ATOM     43  CA  ILE A   1       8.683  38.903  78.037  0.00  0.00    +0.000 C 
BRANCH  43  44
ATOM     44  CB  ILE A   1       8.052  38.985  76.655  0.00  0.00    +0.000 C 
ATOM     45  CG2 ILE A   1       7.864  37.594  76.053  0.00  0.00    +0.000 C 
BRANCH  44  46
ATOM     46  CG1 ILE A   1       6.704  39.675  76.835  0.00  0.00    +0.000 C 
ATOM     47  CD1 ILE A   1       5.836  39.625  75.592  0.00  0.00    +0.000 C 
ENDBRANCH  44  46
ENDBRANCH  43  44
BRANCH  43  48
ATOM     48  N   ILE A   1       9.106  40.191  78.513  0.00  0.00    +0.000 NA
ATOM     49  H   ILE A   1      10.029  40.571  78.221  0.00  0.00    +0.000 HD
ENDBRANCH  43  48
ENDBRANCH  39  43
ENDBRANCH  38  40
BRANCH  38  50
ATOM     50  CB  VAL A   2      10.354  34.812  79.877  0.00  0.00    +0.000 C 
ATOM     51  CG2 VAL A   2       9.968  35.579  81.136  0.00  0.00    +0.000 C 
ATOM     52  CG1 VAL A   2      11.566  33.930  80.136  0.00  0.00    +0.000 C 
ENDBRANCH  38  50
ENDBRANCH  34  38
ENDBRANCH  33  36
BRANCH  33  53
ATOM     53  CB  ILE A   3      13.229  34.856  74.686  0.00  0.00    +0.000 C 
ATOM     54  CG2 ILE A   3      13.311  34.039  73.396  0.00  0.00    +0.000 C 
BRANCH  53  55
ATOM     55  CG1 ILE A   3      12.797  36.271  74.349  0.00  0.00    +0.000 C 
ATOM     56  CD1 ILE A   3      11.465  36.275  73.596  0.00  0.00    +0.000 C 
ENDBRANCH  53  55
ENDBRANCH  33  53
ENDBRANCH  29  33
ENDBRANCH   8  30
BRANCH  18  57
ATOM     57  N   UNK A   6      20.258  29.873  76.258  0.00  0.00    +0.000 NA
ATOM     58  H   UNK A   6      20.831  30.448  76.908  0.00  0.00    +0.000 HD
ATOM     59  H   UNK A   6      19.820  30.312  75.423  0.00  0.00    +0.000 HD
ENDBRANCH  18  57
BRANCH  12  60
ATOM     60  CB  MET A   5      16.019  29.403  80.681  0.00  0.00    +0.000 C 
BRANCH  60  61
ATOM     61  CG  MET A   5      16.020  27.953  81.170  0.00  0.00    +0.000 C 
BRANCH  61  62
ATOM     62  SD  MET A   5      17.176  27.614  82.535  0.00  0.00    +0.000 S 
ATOM     63  CE  MET A   5      16.630  28.667  83.886  0.00  0.00    +0.000 C 
ENDBRANCH  61  62
ENDBRANCH  60  61
ENDBRANCH  12  60
ENDBRANCH   1  16
BRANCH   4  64
ATOM     64  C   PRO A   7      21.704  24.443  81.295  0.00  0.00    +0.000 C 
ATOM     65  O   PRO A   7      21.909  23.251  81.515  0.00  0.00    +0.000 OA
ATOM     66  N   ARG A   8      22.655  25.318  80.965  0.00  0.00    +0.000 N 
ATOM     67  H   ARG A   8      22.389  26.311  80.809  0.00  0.00    +0.000 HD
BRANCH  66  68
ATOM     68  CA  ARG A   8      24.039  24.939  80.816  0.00  0.00    +0.000 C 
BRANCH  68  69
ATOM     69  C   ARG A   8      24.870  26.169  80.598  0.00  0.00    +0.000 C 
ATOM     70  O   ARG A   8      24.385  27.290  80.753  0.00  0.00    +0.000 OA
ATOM     71  N   VAL A   9      26.114  25.975  80.181  0.00  0.00    +0.000 N 
ATOM     72  H   VAL A   9      26.518  25.019  80.114  0.00  0.00    +0.000 HD
BRANCH  71  73
ATOM     73  CA  VAL A   9      26.883  27.139  79.825  0.00  0.00    +0.000 C 
BRANCH  73  74
ATOM     74  C   VAL A   9      26.476  27.446  78.376  0.00  0.00    +0.000 C 
ATOM     75  N   SER A  10      26.646  28.705  77.940  0.00  0.00    +0.000 N 
ATOM     76  H   SER A  10      27.072  29.393  78.593  0.00  0.00    +0.000 HD
ATOM     77  O   VAL A   9      25.981  26.547  77.685  0.00  0.00    +0.000 OA
BRANCH  75  78
ATOM     78  CA  SER A  10      26.270  29.169  76.605  0.00  0.00    +0.000 C 
BRANCH  78  79
ATOM     79  C   SER A  10      27.381  29.981  75.968  0.00  0.00    +0.000 C 
ATOM     80  O   SER A  10      28.459  30.088  76.555  0.00  0.00    +0.000 OA
ATOM     81  N   ARG A  11      27.140  30.597  74.803  0.00  0.00    +0.000 N 
ATOM     82  H   ARG A  11      26.236  30.498  74.298  0.00  0.00    +0.000 HD
BRANCH  81  83
ATOM     83  CA  ARG A  11      28.233  31.415  74.293  0.00  0.00    +0.000 C 
BRANCH  83  84
ATOM     84  C   ARG A  11      28.345  32.735  75.046  0.00  0.00    +0.000 C 
ATOM     85  N   SER A  12      27.253  33.116  75.708  0.00  0.00    +0.000 N 
ATOM     86  H   SER A  12      26.400  32.521  75.694  0.00  0.00    +0.000 HD
ATOM     87  O   ARG A  11      29.390  33.387  75.047  0.00  0.00    +0.000 OA
BRANCH  85  88
ATOM     88  CA  SER A  12      27.258  34.356  76.443  0.00  0.00    +0.000 C 
BRANCH  88  89
ATOM     89  C   SER A  12      28.020  34.243  77.735  0.00  0.00    +0.000 C 
ATOM     90  O   SER A  12      28.529  35.224  78.279  0.00  0.00    +0.000 OA
ENDBRANCH  88  89
BRANCH  88  91
ATOM     91  CB  SER A  12      25.852  34.852  76.650  0.00  0.00    +0.000 C 
BRANCH  91  92
ATOM     92  OG  SER A  12      25.156  34.743  75.438  0.00  0.00    +0.000 OA
ATOM     93  H   SER A  12      24.229  35.067  75.561  0.00  0.00    +0.000 HD
ENDBRANCH  91  92
ENDBRANCH  88  91
ENDBRANCH  85  88
ENDBRANCH  83  84
BRANCH  83  94
ATOM     94  CB  ARG A  11      28.255  31.578  72.786  0.00  0.00    +0.000 C 
BRANCH  94  95
ATOM     95  CG  ARG A  11      26.985  32.202  72.239  0.00  0.00    +0.000 C 
BRANCH  95  96
ATOM     96  CD  ARG A  11      26.915  32.133  70.725  0.00  0.00    +0.000 C 
BRANCH  96  97
ATOM     97  NE  ARG A  11      26.196  30.941  70.264  0.00  0.00    +0.330 N 
ATOM     98  CZ  ARG A  11      24.927  30.674  70.571  0.00  0.00    +0.000 C 
ATOM     99  NH2 ARG A  11      24.214  31.490  71.350  0.00  0.00    +0.330 N 
ATOM    100 HH21 ARG A  11      24.647  32.355  71.731  0.00  0.00    +0.000 HD
ATOM    101 HH22 ARG A  11      23.225  31.261  71.576  0.00  0.00    +0.000 HD
ATOM    102  NH1 ARG A  11      24.363  29.560  70.086  0.00  0.00    +0.330 N 
ATOM    103 HH11 ARG A  11      23.374  29.336  70.315  0.00  0.00    +0.000 HD
ATOM    104 HH12 ARG A  11      24.914  28.919  69.480  0.00  0.00    +0.000 HD
ATOM    105  HE  ARG A  11      26.707  30.264  69.662  0.00  0.00    +0.000 HD
ENDBRANCH  96  97
ENDBRANCH  95  96
ENDBRANCH  94  95
ENDBRANCH  83  94
ENDBRANCH  81  83
ENDBRANCH  78  79
BRANCH  78 106
ATOM    106  CB  SER A  10      25.069  30.084  76.759  0.00  0.00    +0.000 C 
BRANCH 106 107
ATOM    107  OG  SER A  10      25.363  31.054  77.760  0.00  0.00    +0.000 OA
ATOM    108  H   SER A  10      24.587  31.658  77.871  0.00  0.00    +0.000 HD
ENDBRANCH 106 107
ENDBRANCH  78 106
ENDBRANCH  75  78
ENDBRANCH  73  74
BRANCH  73 109
ATOM    109  CB  VAL A   9      28.378  26.923  79.959  0.00  0.00    +0.000 C 
ATOM    110  CG2 VAL A   9      28.722  26.713  81.428  0.00  0.00    +0.000 C 
ATOM    111  CG1 VAL A   9      28.788  25.717  79.124  0.00  0.00    +0.000 C 
ENDBRANCH  73 109
ENDBRANCH  71  73
ENDBRANCH  68  69
BRANCH  68 112
ATOM    112  CB  ARG A   8      24.148  24.129  79.555  0.00  0.00    +0.000 C 
BRANCH 112 113
ATOM    113  CG  ARG A   8      23.475  24.844  78.405  0.00  0.00    +0.000 C 
BRANCH 113 114
ATOM    114  CD  ARG A   8      23.922  24.252  77.073  0.00  0.00    +0.000 C 
BRANCH 114 115
ATOM    115  NE  ARG A   8      22.966  24.514  76.002  0.00  0.00    +0.330 N 
ATOM    116  HE  ARG A   8      22.326  23.755  75.693  0.00  0.00    +0.000 HD
ATOM    117  CZ  ARG A   8      22.897  25.710  75.411  0.00  0.00    +0.000 C 
ATOM    118  NH2 ARG A   8      23.689  26.712  75.786  0.00  0.00    +0.330 N 
ATOM    119 HH21 ARG A   8      24.378  26.572  76.552  0.00  0.00    +0.000 HD
ATOM    120 HH22 ARG A   8      23.619  27.635  75.313  0.00  0.00    +0.000 HD
ATOM    121  NH1 ARG A   8      22.004  25.920  74.452  0.00  0.00    +0.330 N 
ATOM    122 HH11 ARG A   8      21.361  25.155  74.163  0.00  0.00    +0.000 HD
ATOM    123 HH12 ARG A   8      21.947  26.850  73.989  0.00  0.00    +0.000 HD
ENDBRANCH 114 115
ENDBRANCH 113 114
ENDBRANCH 112 113
ENDBRANCH  68 112
ENDBRANCH  66  68
ENDBRANCH   4  64
TORSDOF 41
REMARK  Name = ../refined-set-2016/1bxr/1bxr_pocket.pdb
REMARK  280 active torsions:
REMARK  status: ('A' for Active; 'I' for Inactive)
REMARK    1  A    between atoms: _1  and  _3
REMARK    2  A    between atoms: _3  and  _4
REMARK    3  A    between atoms: _6  and  _8
REMARK    4  A    between atoms: _8  and  _9
REMARK    5  A    between atoms: _8  and  _11
REMARK    6  A    between atoms: _11  and  _12
REMARK    7  A    between atoms: _12  and  _13
REMARK    8  A    between atoms: _18  and  _20
REMARK    9  A    between atoms: _20  and  _21
REMARK   10  A    between atoms: _20  and  _23
REMARK   11  A    between atoms: _23  and  _24
REMARK   12  A    between atoms: _30  and  _32
REMARK   13  A    between atoms: _32  and  _33
REMARK   14  A    between atoms: _32  and  _35
REMARK   15  A    between atoms: _35  and  _36
REMARK   16  A    between atoms: _36  and  _37
REMARK   17  A    between atoms: _42  and  _44
REMARK   18  A    between atoms: _44  and  _45
REMARK   19  A    between atoms: _48  and  _50
REMARK   20  A    between atoms: _50  and  _51
REMARK   21  A    between atoms: _50  and  _53
REMARK   22  A    between atoms: _53  and  _54
REMARK   23  A    between atoms: _54  and  _55
REMARK   24  A    between atoms: _58  and  _60
REMARK   25  A    between atoms: _60  and  _61
REMARK   26  A    between atoms: _60  and  _63
REMARK   27  A    between atoms: _63  and  _64
REMARK   28  A    between atoms: _65  and  _66
REMARK   29  A    between atoms: _75  and  _77
REMARK   30  A    between atoms: _77  and  _78
REMARK   31  A    between atoms: _77  and  _80
REMARK   32  A    between atoms: _80  and  _81
REMARK   33  A    between atoms: _84  and  _86
REMARK   34  A    between atoms: _86  and  _87
REMARK   35  A    between atoms: _90  and  _92
REMARK   36  A    between atoms: _92  and  _93
REMARK   37  A    between atoms: _92  and  _95
REMARK   38  A    between atoms: _95  and  _96
REMARK   39  A    between atoms: _96  and  _97
REMARK   40  A    between atoms: _97  and  _98
REMARK   41  A    between atoms: _107  and  _109
REMARK   42  A    between atoms: _109  and  _110
REMARK   43  A    between atoms: _109  and  _112
REMARK   44  A    between atoms: _112  and  _113
REMARK   45  A    between atoms: _116  and  _117
REMARK   46  A    between atoms: _122  and  _124
REMARK   47  A    between atoms: _124  and  _125
REMARK   48  A    between atoms: _124  and  _127
REMARK   49  A    between atoms: _129  and  _131
REMARK   50  A    between atoms: _131  and  _132
REMARK   51  A    between atoms: _131  and  _134
REMARK   52  A    between atoms: _134  and  _135
REMARK   53  A    between atoms: _138  and  _140
REMARK   54  A    between atoms: _140  and  _141
REMARK   55  A    between atoms: _140  and  _143
REMARK   56  A    between atoms: _143  and  _144
REMARK   57  A    between atoms: _147  and  _149
REMARK   58  A    between atoms: _149  and  _150
REMARK   59  A    between atoms: _149  and  _152
REMARK   60  A    between atoms: _152  and  _153
REMARK   61  A    between atoms: _153  and  _154
REMARK   62  A    between atoms: _154  and  _155
REMARK   63  A    between atoms: _165  and  _166
REMARK   64  A    between atoms: _171  and  _173
REMARK   65  A    between atoms: _173  and  _174
REMARK   66  A    between atoms: _173  and  _176
REMARK   67  A    between atoms: _176  and  _177
REMARK   68  A    between atoms: _179  and  _181
REMARK   69  A    between atoms: _181  and  _182
REMARK   70  A    between atoms: _181  and  _184
REMARK   71  A    between atoms: _184  and  _185
REMARK   72  A    between atoms: _191  and  _193
REMARK   73  A    between atoms: _193  and  _194
REMARK   74  A    between atoms: _193  and  _196
REMARK   75  A    between atoms: _196  and  _197
REMARK   76  A    between atoms: _200  and  _202
REMARK   77  A    between atoms: _202  and  _203
REMARK   78  A    between atoms: _202  and  _205
REMARK   79  A    between atoms: _205  and  _206
REMARK   80  A    between atoms: _206  and  _207
REMARK   81  A    between atoms: _209  and  _211
REMARK   82  A    between atoms: _211  and  _212
REMARK   83  A    between atoms: _214  and  _216
REMARK   84  A    between atoms: _216  and  _217
REMARK   85  A    between atoms: _219  and  _221
REMARK   86  A    between atoms: _221  and  _222
REMARK   87  A    between atoms: _221  and  _224
REMARK   88  A    between atoms: _224  and  _225
REMARK   89  A    between atoms: _227  and  _229
REMARK   90  A    between atoms: _229  and  _230
REMARK   91  A    between atoms: _232  and  _234
REMARK   92  A    between atoms: _234  and  _235
REMARK   93  A    between atoms: _237  and  _239
REMARK   94  A    between atoms: _239  and  _240
REMARK   95  A    between atoms: _242  and  _244
REMARK   96  A    between atoms: _244  and  _245
REMARK   97  A    between atoms: _244  and  _247
REMARK   98  A    between atoms: _247  and  _248
REMARK   99  A    between atoms: _251  and  _253
REMARK  100  A    between atoms: _253  and  _254
REMARK  101  A    between atoms: _253  and  _256
REMARK  102  A    between atoms: _256  and  _257
REMARK  103  A    between atoms: _262  and  _263
REMARK  104  A    between atoms: _265  and  _267
REMARK  105  A    between atoms: _267  and  _268
REMARK  106  A    between atoms: _267  and  _270
REMARK  107  A    between atoms: _270  and  _271
REMARK  108  A    between atoms: _274  and  _276
REMARK  109  A    between atoms: _276  and  _277
REMARK  110  A    between atoms: _276  and  _279
REMARK  111  A    between atoms: _279  and  _280
REMARK  112  A    between atoms: _283  and  _285
REMARK  113  A    between atoms: _285  and  _286
REMARK  114  A    between atoms: _285  and  _288
REMARK  115  A    between atoms: _288  and  _289
REMARK  116  A    between atoms: _292  and  _294
REMARK  117  A    between atoms: _294  and  _295
REMARK  118  A    between atoms: _294  and  _297
REMARK  119  A    between atoms: _297  and  _298
REMARK  120  A    between atoms: _298  and  _299
REMARK  121  A    between atoms: _302  and  _304
REMARK  122  A    between atoms: _304  and  _305
REMARK  123  A    between atoms: _304  and  _307
REMARK  124  A    between atoms: _307  and  _308
REMARK  125  A    between atoms: _310  and  _312
REMARK  126  A    between atoms: _312  and  _313
REMARK  127  A    between atoms: _312  and  _315
REMARK  128  A    between atoms: _315  and  _316
REMARK  129  A    between atoms: _319  and  _321
REMARK  130  A    between atoms: _321  and  _322
REMARK  131  A    between atoms: _321  and  _324
REMARK  132  A    between atoms: _324  and  _325
REMARK  133  A    between atoms: _328  and  _330
REMARK  134  A    between atoms: _330  and  _331
REMARK  135  A    between atoms: _333  and  _335
REMARK  136  A    between atoms: _335  and  _336
REMARK  137  A    between atoms: _335  and  _338
REMARK  138  A    between atoms: _338  and  _339
REMARK  139  A    between atoms: _349  and  _351
REMARK  140  A    between atoms: _351  and  _352
REMARK  141  A    between atoms: _351  and  _354
REMARK  142  A    between atoms: _354  and  _355
REMARK  143  A    between atoms: _355  and  _356
REMARK  144  A    between atoms: _356  and  _357
REMARK  145  A    between atoms: _357  and  _358
REMARK  146  A    between atoms: _362  and  _364
REMARK  147  A    between atoms: _364  and  _365
REMARK  148  A    between atoms: _364  and  _367
REMARK  149  A    between atoms: _367  and  _368
REMARK  150  A    between atoms: _368  and  _369
REMARK  151  A    between atoms: _372  and  _374
REMARK  152  A    between atoms: _374  and  _375
REMARK  153  A    between atoms: _374  and  _377
REMARK  154  A    between atoms: _377  and  _378
REMARK  155  A    between atoms: _383  and  _384
REMARK  156  A    between atoms: _386  and  _388
REMARK  157  A    between atoms: _388  and  _389
REMARK  158  A    between atoms: _388  and  _391
REMARK  159  A    between atoms: _391  and  _392
REMARK  160  A    between atoms: _392  and  _393
REMARK  161  A    between atoms: _396  and  _398
REMARK  162  A    between atoms: _398  and  _399
REMARK  163  A    between atoms: _398  and  _401
REMARK  164  A    between atoms: _401  and  _402
REMARK  165  A    between atoms: _407  and  _409
REMARK  166  A    between atoms: _409  and  _410
REMARK  167  A    between atoms: _409  and  _412
REMARK  168  A    between atoms: _412  and  _413
REMARK  169  A    between atoms: _416  and  _418
REMARK  170  A    between atoms: _418  and  _419
REMARK  171  A    between atoms: _422  and  _424
REMARK  172  A    between atoms: _424  and  _425
REMARK  173  A    between atoms: _424  and  _427
REMARK  174  A    between atoms: _427  and  _428
REMARK  175  A    between atoms: _428  and  _429
REMARK  176  A    between atoms: _431  and  _433
REMARK  177  A    between atoms: _433  and  _434
REMARK  178  A    between atoms: _436  and  _438
REMARK  179  A    between atoms: _438  and  _439
REMARK  180  A    between atoms: _438  and  _441
REMARK  181  A    between atoms: _441  and  _442
REMARK  182  A    between atoms: _445  and  _447
REMARK  183  A    between atoms: _447  and  _448
REMARK  184  A    between atoms: _447  and  _450
REMARK  185  A    between atoms: _450  and  _451
REMARK  186  A    between atoms: _456  and  _458
REMARK  187  A    between atoms: _458  and  _459
REMARK  188  A    between atoms: _458  and  _461
REMARK  189  A    between atoms: _461  and  _462
REMARK  190  A    between atoms: _465  and  _467
REMARK  191  A    between atoms: _467  and  _468
REMARK  192  A    between atoms: _470  and  _472
REMARK  193  A    between atoms: _472  and  _473
REMARK  194  A    between atoms: _472  and  _475
REMARK  195  A    between atoms: _475  and  _476
REMARK  196  A    between atoms: _479  and  _481
REMARK  197  A    between atoms: _481  and  _482
REMARK  198  A    between atoms: _481  and  _484
REMARK  199  A    between atoms: _484  and  _485
REMARK  200  A    between atoms: _487  and  _489
REMARK  201  A    between atoms: _489  and  _490
REMARK  202  A    between atoms: _489  and  _492
REMARK  203  A    between atoms: _492  and  _493
REMARK  204  A    between atoms: _498  and  _500
REMARK  205  A    between atoms: _500  and  _501
REMARK  206  A    between atoms: _500  and  _503
REMARK  207  A    between atoms: _503  and  _504
REMARK  208  A    between atoms: _504  and  _505
REMARK  209  A    between atoms: _510  and  _512
REMARK  210  A    between atoms: _512  and  _513
REMARK  211  A    between atoms: _512  and  _515
REMARK  212  A    between atoms: _515  and  _516
REMARK  213  A    between atoms: _522  and  _524
REMARK  214  A    between atoms: _524  and  _525
REMARK  215  A    between atoms: _528  and  _530
REMARK  216  A    between atoms: _530  and  _531
REMARK  217  A    between atoms: _530  and  _533
REMARK  218  A    between atoms: _533  and  _534
REMARK  219  A    between atoms: _537  and  _539
REMARK  220  A    between atoms: _539  and  _540
REMARK  221  A    between atoms: _539  and  _542
REMARK  222  A    between atoms: _545  and  _547
REMARK  223  A    between atoms: _547  and  _548
REMARK  224  A    between atoms: _547  and  _550
REMARK  225  A    between atoms: _550  and  _551
REMARK  226  A    between atoms: _554  and  _556
REMARK  227  A    between atoms: _566  and  _569
REMARK  228  A    between atoms: _569  and  _570
REMARK  229  A    between atoms: _570  and  _571
REMARK  230  A    between atoms: _575  and  _576
REMARK  231  A    between atoms: _579  and  _581
REMARK  232  A    between atoms: _585  and  _586
REMARK  233  A    between atoms: _591  and  _593
REMARK  234  A    between atoms: _593  and  _594
REMARK  235  A    between atoms: _593  and  _596
REMARK  236  A    between atoms: _596  and  _597
REMARK  237  A    between atoms: _597  and  _598
REMARK  238  A    between atoms: _598  and  _599
REMARK  239  A    between atoms: _608  and  _610
REMARK  240  A    between atoms: _610  and  _611
REMARK  241  A    between atoms: _610  and  _613
REMARK  242  A    between atoms: _616  and  _618
REMARK  243  A    between atoms: _618  and  _619
REMARK  244  A    between atoms: _618  and  _621
REMARK  245  A    between atoms: _621  and  _622
REMARK  246  A    between atoms: _624  and  _626
REMARK  247  A    between atoms: _626  and  _627
REMARK  248  A    between atoms: _626  and  _629
REMARK  249  A    between atoms: _629  and  _630
REMARK  250  A    between atoms: _630  and  _631
REMARK  251  A    between atoms: _631  and  _632
REMARK  252  A    between atoms: _641  and  _643
REMARK  253  A    between atoms: _643  and  _644
REMARK  254  A    between atoms: _643  and  _646
REMARK  255  A    between atoms: _646  and  _647
REMARK  256  A    between atoms: _649  and  _651
REMARK  257  A    between atoms: _651  and  _652
REMARK  258  A    between atoms: _651  and  _654
REMARK  259  A    between atoms: _654  and  _655
REMARK  260  A    between atoms: _658  and  _660
REMARK  261  A    between atoms: _660  and  _661
REMARK  262  A    between atoms: _660  and  _663
REMARK  263  A    between atoms: _663  and  _664
REMARK  264  A    between atoms: _667  and  _669
REMARK  265  A    between atoms: _669  and  _670
REMARK  266  A    between atoms: _669  and  _672
REMARK  267  A    between atoms: _672  and  _673
REMARK  268  A    between atoms: _673  and  _674
REMARK  269  A    between atoms: _679  and  _681
REMARK  270  A    between atoms: _681  and  _682
REMARK  271  A    between atoms: _681  and  _684
REMARK  272  A    between atoms: _684  and  _685
REMARK  273  A    between atoms: _685  and  _686
REMARK  274  A    between atoms: _688  and  _690
REMARK  275  A    between atoms: _690  and  _691
REMARK  276  A    between atoms: _690  and  _693
REMARK  277  A    between atoms: _693  and  _694
REMARK  278  A    between atoms: _694  and  _695
REMARK  279  A    between atoms: _695  and  _696
REMARK  280  A    between atoms: _696  and  _697
REMARK                            x       y       z     vdW  Elec       q    Type
REMARK                         _______ _______ _______ _____ _____    ______ ____
ROOT
ATOM      1  C   THR A   2      17.416  32.571  64.092  0.00  0.00    +0.243 C 
ATOM      2  O   THR A   2      17.583  31.944  65.127  0.00  0.00    -0.273 OA
ATOM      3  N   GLN A   3      17.960  32.204  62.960  0.00  0.00    -0.297 N 
ATOM      4  H   GLN A   3      17.770  32.730  62.083  0.00  0.00    +0.150 HD
ENDROOT
BRANCH   3   5
ATOM      5  CA  GLN A   3      18.824  31.060  62.958  0.00  0.00    +0.149 C 
BRANCH   5   6
ATOM      6  C   GLN A   3      20.211  31.620  62.797  0.00  0.00    +0.241 C 
ATOM      7  N   MET A   4      21.151  31.164  63.611  0.00  0.00    -0.298 N 
ATOM      8  H   MET A   4      20.897  30.481  64.353  0.00  0.00    +0.150 HD
ATOM      9  O   GLN A   3      20.415  32.445  61.916  0.00  0.00    -0.273 OA
BRANCH   7  10
ATOM     10  CA  MET A   4      22.533  31.602  63.485  0.00  0.00    +0.138 C 
BRANCH  10  11
ATOM     11  C   MET A   4      23.223  31.295  62.133  0.00  0.00    +0.227 C 
ATOM     12  O   MET A   4      23.049  30.211  61.564  0.00  0.00    -0.286 OA
ENDBRANCH  10  11
BRANCH  10  13
ATOM     13  CB  MET A   4      23.332  30.940  64.608  0.00  0.00    +0.039 C 
BRANCH  13  14
ATOM     14  CG  MET A   4      23.653  31.984  65.623  0.00  0.00    +0.060 C 
BRANCH  14  15
ATOM     15  SD  MET A   4      24.475  31.337  67.064  0.00  0.00    -0.139 S 
ATOM     16  CE  MET A   4      26.152  31.835  66.640  0.00  0.00    +0.069 C 
ENDBRANCH  14  15
ENDBRANCH  13  14
ENDBRANCH  10  13
ENDBRANCH   7  10
ENDBRANCH   5   6
BRANCH   5  17
ATOM     17  CB  GLN A   3      18.559  30.038  61.814  0.00  0.00    +0.039 C 
BRANCH  17  18
ATOM     18  CG  GLN A   3      19.611  28.895  61.726  0.00  0.00    +0.087 C 
BRANCH  18  19
ATOM     19  CD  GLN A   3      19.897  28.475  60.301  0.00  0.00    +0.219 C 
ATOM     20  NE2 GLN A   3      21.001  28.967  59.724  0.00  0.00    -0.329 N 
ATOM     21 HE21 GLN A   3      21.622  29.611  60.254  0.00  0.00    +0.145 HD
ATOM     22 HE22 GLN A   3      21.237  28.705  58.746  0.00  0.00    +0.145 HD
ATOM     23  OE1 GLN A   3      19.125  27.705  59.713  0.00  0.00    -0.275 OA
ENDBRANCH  18  19
ENDBRANCH  17  18
ENDBRANCH   5  17
ENDBRANCH   3   5
BRANCH   1  24
ATOM     24  CA  THR A   2      16.602  33.839  64.047  0.00  0.00    +0.176 C 
BRANCH  24  27
ATOM     25  C   THR A   1      17.655  35.378  62.518  0.00  0.00    +0.241 C 
ATOM     26  O   THR A   1      18.554  35.635  63.325  0.00  0.00    -0.274 OA
ATOM     27  N   THR A   2      16.666  34.513  62.766  0.00  0.00    -0.295 N 
ATOM     28  H   THR A   2      15.944  34.324  62.041  0.00  0.00    +0.150 HD
BRANCH  25  29
ATOM     29  CA  THR A   1      17.597  36.058  61.173  0.00  0.00    +0.172 C 
BRANCH  29  30
ATOM     30  CB  THR A   1      16.914  35.181  60.113  0.00  0.00    +0.135 C 
ATOM     31  CG2 THR A   1      17.824  34.027  59.685  0.00  0.00    +0.034 C 
BRANCH  30  32
ATOM     32  OG1 THR A   1      15.703  34.703  60.663  0.00  0.00    -0.383 OA
ATOM     33  HG1 THR A   1      15.242  34.133  59.998  0.00  0.00    +0.210 HD
ENDBRANCH  30  32
ENDBRANCH  29  30
BRANCH  29  34
ATOM     34  N   THR A   1      18.880  36.444  60.701  0.00  0.00    -0.236 NA
ATOM     35  H   THR A   1      19.720  35.879  60.941  0.00  0.00    +0.142 HD
ENDBRANCH  29  34
ENDBRANCH  25  29
ENDBRANCH  24  27
BRANCH  24  36
ATOM     36  CB  THR A   2      15.187  33.679  64.619  0.00  0.00    +0.137 C 
ATOM     37  CG2 THR A   2      14.455  35.003  64.651  0.00  0.00    +0.034 C 
BRANCH  36  38
ATOM     38  OG1 THR A   2      14.481  32.876  63.732  0.00  0.00    -0.382 OA
ATOM     39  HG1 THR A   2      13.558  32.748  64.067  0.00  0.00    +0.210 HD
ENDBRANCH  36  38
ENDBRANCH  24  36
ENDBRANCH   1  24
TORSDOF 18
REMARK  Name = ../refined-set-2016/1bxr/1bxr_pocket.pdb
REMARK  280 active torsions:
REMARK  status: ('A' for Active; 'I' for Inactive)
REMARK    1  A    between atoms: _1  and  _3
REMARK    2  A    between atoms: _3  and  _4
REMARK    3  A    between atoms: _6  and  _8
REMARK    4  A    between atoms: _8  and  _9
REMARK    5  A    between atoms: _8  and  _11
REMARK    6  A    between atoms: _11  and  _12
REMARK    7  A    between atoms: _12  and  _13
REMARK    8  A    between atoms: _18  and  _20
REMARK    9  A    between atoms: _20  and  _21
REMARK   10  A    between atoms: _20  and  _23
REMARK   11  A    between atoms: _23  and  _24
REMARK   12  A    between atoms: _30  and  _32
REMARK   13  A    between atoms: _32  and  _33
REMARK   14  A    between atoms: _32  and  _35
REMARK   15  A    between atoms: _35  and  _36
REMARK   16  A    between atoms: _36  and  _37
REMARK   17  A    between atoms: _42  and  _44
REMARK   18  A    between atoms: _44  and  _45
REMARK   19  A    between atoms: _48  and  _50
REMARK   20  A    between atoms: _50  and  _51
REMARK   21  A    between atoms: _50  and  _53
REMARK   22  A    between atoms: _53  and  _54
REMARK   23  A    between atoms: _54  and  _55
REMARK   24  A    between atoms: _58  and  _60
REMARK   25  A    between atoms: _60  and  _61
REMARK   26  A    between atoms: _60  and  _63
REMARK   27  A    between atoms: _63  and  _64
REMARK   28  A    between atoms: _65  and  _66
REMARK   29  A    between atoms: _75  and  _77
REMARK   30  A    between atoms: _77  and  _78
REMARK   31  A    between atoms: _77  and  _80
REMARK   32  A    between atoms: _80  and  _81
REMARK   33  A    between atoms: _84  and  _86
REMARK   34  A    between atoms: _86  and  _87
REMARK   35  A    between atoms: _90  and  _92
REMARK   36  A    between atoms: _92  and  _93
REMARK   37  A    between atoms: _92  and  _95
REMARK   38  A    between atoms: _95  and  _96
REMARK   39  A    between atoms: _96  and  _97
REMARK   40  A    between atoms: _97  and  _98
REMARK   41  A    between atoms: _107  and  _109
REMARK   42  A    between atoms: _109  and  _110
REMARK   43  A    between atoms: _109  and  _112
REMARK   44  A    between atoms: _112  and  _113
REMARK   45  A    between atoms: _116  and  _117
REMARK   46  A    between atoms: _122  and  _124
REMARK   47  A    between atoms: _124  and  _125
REMARK   48  A    between atoms: _124  and  _127
REMARK   49  A    between atoms: _129  and  _131
REMARK   50  A    between atoms: _131  and  _132
REMARK   51  A    between atoms: _131  and  _134
REMARK   52  A    between atoms: _134  and  _135
REMARK   53  A    between atoms: _138  and  _140
REMARK   54  A    between atoms: _140  and  _141
REMARK   55  A    between atoms: _140  and  _143
REMARK   56  A    between atoms: _143  and  _144
REMARK   57  A    between atoms: _147  and  _149
REMARK   58  A    between atoms: _149  and  _150
REMARK   59  A    between atoms: _149  and  _152
REMARK   60  A    between atoms: _152  and  _153
REMARK   61  A    between atoms: _153  and  _154
REMARK   62  A    between atoms: _154  and  _155
REMARK   63  A    between atoms: _165  and  _166
REMARK   64  A    between atoms: _171  and  _173
REMARK   65  A    between atoms: _173  and  _174
REMARK   66  A    between atoms: _173  and  _176
REMARK   67  A    between atoms: _176  and  _177
REMARK   68  A    between atoms: _179  and  _181
REMARK   69  A    between atoms: _181  and  _182
REMARK   70  A    between atoms: _181  and  _184
REMARK   71  A    between atoms: _184  and  _185
REMARK   72  A    between atoms: _191  and  _193
REMARK   73  A    between atoms: _193  and  _194
REMARK   74  A    between atoms: _193  and  _196
REMARK   75  A    between atoms: _196  and  _197
REMARK   76  A    between atoms: _200  and  _202
REMARK   77  A    between atoms: _202  and  _203
REMARK   78  A    between atoms: _202  and  _205
REMARK   79  A    between atoms: _205  and  _206
REMARK   80  A    between atoms: _206  and  _207
REMARK   81  A    between atoms: _209  and  _211
REMARK   82  A    between atoms: _211  and  _212
REMARK   83  A    between atoms: _214  and  _216
REMARK   84  A    between atoms: _216  and  _217
REMARK   85  A    between atoms: _219  and  _221
REMARK   86  A    between atoms: _221  and  _222
REMARK   87  A    between atoms: _221  and  _224
REMARK   88  A    between atoms: _224  and  _225
REMARK   89  A    between atoms: _227  and  _229
REMARK   90  A    between atoms: _229  and  _230
REMARK   91  A    between atoms: _232  and  _234
REMARK   92  A    between atoms: _234  and  _235
REMARK   93  A    between atoms: _237  and  _239
REMARK   94  A    between atoms: _239  and  _240
REMARK   95  A    between atoms: _242  and  _244
REMARK   96  A    between atoms: _244  and  _245
REMARK   97  A    between atoms: _244  and  _247
REMARK   98  A    between atoms: _247  and  _248
REMARK   99  A    between atoms: _251  and  _253
REMARK  100  A    between atoms: _253  and  _254
REMARK  101  A    between atoms: _253  and  _256
REMARK  102  A    between atoms: _256  and  _257
REMARK  103  A    between atoms: _262  and  _263
REMARK  104  A    between atoms: _265  and  _267
REMARK  105  A    between atoms: _267  and  _268
REMARK  106  A    between atoms: _267  and  _270
REMARK  107  A    between atoms: _270  and  _271
REMARK  108  A    between atoms: _274  and  _276
REMARK  109  A    between atoms: _276  and  _277
REMARK  110  A    between atoms: _276  and  _279
REMARK  111  A    between atoms: _279  and  _280
REMARK  112  A    between atoms: _283  and  _285
REMARK  113  A    between atoms: _285  and  _286
REMARK  114  A    between atoms: _285  and  _288
REMARK  115  A    between atoms: _288  and  _289
REMARK  116  A    between atoms: _292  and  _294
REMARK  117  A    between atoms: _294  and  _295
REMARK  118  A    between atoms: _294  and  _297
REMARK  119  A    between atoms: _297  and  _298
REMARK  120  A    between atoms: _298  and  _299
REMARK  121  A    between atoms: _302  and  _304
REMARK  122  A    between atoms: _304  and  _305
REMARK  123  A    between atoms: _304  and  _307
REMARK  124  A    between atoms: _307  and  _308
REMARK  125  A    between atoms: _310  and  _312
REMARK  126  A    between atoms: _312  and  _313
REMARK  127  A    between atoms: _312  and  _315
REMARK  128  A    between atoms: _315  and  _316
REMARK  129  A    between atoms: _319  and  _321
REMARK  130  A    between atoms: _321  and  _322
REMARK  131  A    between atoms: _321  and  _324
REMARK  132  A    between atoms: _324  and  _325
REMARK  133  A    between atoms: _328  and  _330
REMARK  134  A    between atoms: _330  and  _331
REMARK  135  A    between atoms: _333  and  _335
REMARK  136  A    between atoms: _335  and  _336
REMARK  137  A    between atoms: _335  and  _338
REMARK  138  A    between atoms: _338  and  _339
REMARK  139  A    between atoms: _349  and  _351
REMARK  140  A    between atoms: _351  and  _352
REMARK  141  A    between atoms: _351  and  _354
REMARK  142  A    between atoms: _354  and  _355
REMARK  143  A    between atoms: _355  and  _356
REMARK  144  A    between atoms: _356  and  _357
REMARK  145  A    between atoms: _357  and  _358
REMARK  146  A    between atoms: _362  and  _364
REMARK  147  A    between atoms: _364  and  _365
REMARK  148  A    between atoms: _364  and  _367
REMARK  149  A    between atoms: _367  and  _368
REMARK  150  A    between atoms: _368  and  _369
REMARK  151  A    between atoms: _372  and  _374
REMARK  152  A    between atoms: _374  and  _375
REMARK  153  A    between atoms: _374  and  _377
REMARK  154  A    between atoms: _377  and  _378
REMARK  155  A    between atoms: _383  and  _384
REMARK  156  A    between atoms: _386  and  _388
REMARK  157  A    between atoms: _388  and  _389
REMARK  158  A    between atoms: _388  and  _391
REMARK  159  A    between atoms: _391  and  _392
REMARK  160  A    between atoms: _392  and  _393
REMARK  161  A    between atoms: _396  and  _398
REMARK  162  A    between atoms: _398  and  _399
REMARK  163  A    between atoms: _398  and  _401
REMARK  164  A    between atoms: _401  and  _402
REMARK  165  A    between atoms: _407  and  _409
REMARK  166  A    between atoms: _409  and  _410
REMARK  167  A    between atoms: _409  and  _412
REMARK  168  A    between atoms: _412  and  _413
REMARK  169  A    between atoms: _416  and  _418
REMARK  170  A    between atoms: _418  and  _419
REMARK  171  A    between atoms: _422  and  _424
REMARK  172  A    between atoms: _424  and  _425
REMARK  173  A    between atoms: _424  and  _427
REMARK  174  A    between atoms: _427  and  _428
REMARK  175  A    between atoms: _428  and  _429
REMARK  176  A    between atoms: _431  and  _433
REMARK  177  A    between atoms: _433  and  _434
REMARK  178  A    between atoms: _436  and  _438
REMARK  179  A    between atoms: _438  and  _439
REMARK  180  A    between atoms: _438  and  _441
REMARK  181  A    between atoms: _441  and  _442
REMARK  182  A    between atoms: _445  and  _447
REMARK  183  A    between atoms: _447  and  _448
REMARK  184  A    between atoms: _447  and  _450
REMARK  185  A    between atoms: _450  and  _451
REMARK  186  A    between atoms: _456  and  _458
REMARK  187  A    between atoms: _458  and  _459
REMARK  188  A    between atoms: _458  and  _461
REMARK  189  A    between atoms: _461  and  _462
REMARK  190  A    between atoms: _465  and  _467
REMARK  191  A    between atoms: _467  and  _468
REMARK  192  A    between atoms: _470  and  _472
REMARK  193  A    between atoms: _472  and  _473
REMARK  194  A    between atoms: _472  and  _475
REMARK  195  A    between atoms: _475  and  _476
REMARK  196  A    between atoms: _479  and  _481
REMARK  197  A    between atoms: _481  and  _482
REMARK  198  A    between atoms: _481  and  _484
REMARK  199  A    between atoms: _484  and  _485
REMARK  200  A    between atoms: _487  and  _489
REMARK  201  A    between atoms: _489  and  _490
REMARK  202  A    between atoms: _489  and  _492
REMARK  203  A    between atoms: _492  and  _493
REMARK  204  A    between atoms: _498  and  _500
REMARK  205  A    between atoms: _500  and  _501
REMARK  206  A    between atoms: _500  and  _503
REMARK  207  A    between atoms: _503  and  _504
REMARK  208  A    between atoms: _504  and  _505
REMARK  209  A    between atoms: _510  and  _512
REMARK  210  A    between atoms: _512  and  _513
REMARK  211  A    between atoms: _512  and  _515
REMARK  212  A    between atoms: _515  and  _516
REMARK  213  A    between atoms: _522  and  _524
REMARK  214  A    between atoms: _524  and  _525
REMARK  215  A    between atoms: _528  and  _530
REMARK  216  A    between atoms: _530  and  _531
REMARK  217  A    between atoms: _530  and  _533
REMARK  218  A    between atoms: _533  and  _534
REMARK  219  A    between atoms: _537  and  _539
REMARK  220  A    between atoms: _539  and  _540
REMARK  221  A    between atoms: _539  and  _542
REMARK  222  A    between atoms: _545  and  _547
REMARK  223  A    between atoms: _547  and  _548
REMARK  224  A    between atoms: _547  and  _550
REMARK  225  A    between atoms: _550  and  _551
REMARK  226  A    between atoms: _554  and  _556
REMARK  227  A    between atoms: _566  and  _569
REMARK  228  A    between atoms: _569  and  _570
REMARK  229  A    between atoms: _570  and  _571
REMARK  230  A    between atoms: _575  and  _576
REMARK  231  A    between atoms: _579  and  _581
REMARK  232  A    between atoms: _585  and  _586
REMARK  233  A    between atoms: _591  and  _593
REMARK  234  A    between atoms: _593  and  _594
REMARK  235  A    between atoms: _593  and  _596
REMARK  236  A    between atoms: _596  and  _597
REMARK  237  A    between atoms: _597  and  _598
REMARK  238  A    between atoms: _598  and  _599
REMARK  239  A    between atoms: _608  and  _610
REMARK  240  A    between atoms: _610  and  _611
REMARK  241  A    between atoms: _610  and  _613
REMARK  242  A    between atoms: _616  and  _618
REMARK  243  A    between atoms: _618  and  _619
REMARK  244  A    between atoms: _618  and  _621
REMARK  245  A    between atoms: _621  and  _622
REMARK  246  A    between atoms: _624  and  _626
REMARK  247  A    between atoms: _626  and  _627
REMARK  248  A    between atoms: _626  and  _629
REMARK  249  A    between atoms: _629  and  _630
REMARK  250  A    between atoms: _630  and  _631
REMARK  251  A    between atoms: _631  and  _632
REMARK  252  A    between atoms: _641  and  _643
REMARK  253  A    between atoms: _643  and  _644
REMARK  254  A    between atoms: _643  and  _646
REMARK  255  A    between atoms: _646  and  _647
REMARK  256  A    between atoms: _649  and  _651
REMARK  257  A    between atoms: _651  and  _652
REMARK  258  A    between atoms: _651  and  _654
REMARK  259  A    between atoms: _654  and  _655
REMARK  260  A    between atoms: _658  and  _660
REMARK  261  A    between atoms: _660  and  _661
REMARK  262  A    between atoms: _660  and  _663
REMARK  263  A    between atoms: _663  and  _664
REMARK  264  A    between atoms: _667  and  _669
REMARK  265  A    between atoms: _669  and  _670
REMARK  266  A    between atoms: _669  and  _672
REMARK  267  A    between atoms: _672  and  _673
REMARK  268  A    between atoms: _673  and  _674
REMARK  269  A    between atoms: _679  and  _681
REMARK  270  A    between atoms: _681  and  _682
REMARK  271  A    between atoms: _681  and  _684
REMARK  272  A    between atoms: _684  and  _685
REMARK  273  A    between atoms: _685  and  _686
REMARK  274  A    between atoms: _688  and  _690
REMARK  275  A    between atoms: _690  and  _691
REMARK  276  A    between atoms: _690  and  _693
REMARK  277  A    between atoms: _693  and  _694
REMARK  278  A    between atoms: _694  and  _695
REMARK  279  A    between atoms: _695  and  _696
REMARK  280  A    between atoms: _696  and  _697
REMARK                            x       y       z     vdW  Elec       q    Type
REMARK                         _______ _______ _______ _____ _____    ______ ____
ROOT
ATOM      1  CG  LYS A   1      24.510  26.075  59.492  0.00  0.00    -0.000 C 
ENDROOT
BRANCH   1   2
ATOM      2  CB  LYS A   1      23.932  26.823  58.311  0.00  0.00    +0.025 C 
BRANCH   2   3
ATOM      3  CA  LYS A   1      22.817  26.120  57.563  0.00  0.00    +0.133 C 
BRANCH   3   4
ATOM      4  N   LYS A   1      23.234  24.816  57.039  0.00  0.00    -0.239 NA
ATOM      5  H   LYS A   1      24.230  24.674  56.776  0.00  0.00    +0.142 HD
ENDBRANCH   3   4
BRANCH   3   6
ATOM      6  C   LYS A   1      22.428  27.070  56.434  0.00  0.00    +0.224 C 
ATOM      7  O   LYS A   1      21.740  28.057  56.647  0.00  0.00    -0.287 OA
ENDBRANCH   3   6
ENDBRANCH   2   3
ENDBRANCH   1   2
BRANCH   1   8
ATOM      8  CD  LYS A   1      23.440  25.420  60.324  0.00  0.00    -0.024 C 
BRANCH   8   9
ATOM      9  CE  LYS A   1      23.747  25.502  61.803  0.00  0.00    -0.086 C 
BRANCH   9  10
ATOM     10  NZ  LYS A   1      22.558  25.827  62.611  0.00  0.00    +0.380 N 
ATOM     11  HZ1 LYS A   1      22.824  25.871  63.615  0.00  0.00    -0.089 HD
ATOM     12  HZ2 LYS A   1      21.836  25.091  62.474  0.00  0.00    -0.089 HD
ATOM     13  HZ3 LYS A   1      22.178  26.748  62.311  0.00  0.00    -0.089 HD
ENDBRANCH   9  10
ENDBRANCH   8   9
ENDBRANCH   1   8
TORSDOF 7
REMARK  Name = ../refined-set-2016/1bxr/1bxr_pocket.pdb
REMARK  280 active torsions:
REMARK  status: ('A' for Active; 'I' for Inactive)
REMARK    1  A    between atoms: _1  and  _3
REMARK    2  A    between atoms: _3  and  _4
REMARK    3  A    between atoms: _6  and  _8
REMARK    4  A    between atoms: _8  and  _9
REMARK    5  A    between atoms: _8  and  _11
REMARK    6  A    between atoms: _11  and  _12
REMARK    7  A    between atoms: _12  and  _13
REMARK    8  A    between atoms: _18  and  _20
REMARK    9  A    between atoms: _20  and  _21
REMARK   10  A    between atoms: _20  and  _23
REMARK   11  A    between atoms: _23  and  _24
REMARK   12  A    between atoms: _30  and  _32
REMARK   13  A    between atoms: _32  and  _33
REMARK   14  A    between atoms: _32  and  _35
REMARK   15  A    between atoms: _35  and  _36
REMARK   16  A    between atoms: _36  and  _37
REMARK   17  A    between atoms: _42  and  _44
REMARK   18  A    between atoms: _44  and  _45
REMARK   19  A    between atoms: _48  and  _50
REMARK   20  A    between atoms: _50  and  _51
REMARK   21  A    between atoms: _50  and  _53
REMARK   22  A    between atoms: _53  and  _54
REMARK   23  A    between atoms: _54  and  _55
REMARK   24  A    between atoms: _58  and  _60
REMARK   25  A    between atoms: _60  and  _61
REMARK   26  A    between atoms: _60  and  _63
REMARK   27  A    between atoms: _63  and  _64
REMARK   28  A    between atoms: _65  and  _66
REMARK   29  A    between atoms: _75  and  _77
REMARK   30  A    between atoms: _77  and  _78
REMARK   31  A    between atoms: _77  and  _80
REMARK   32  A    between atoms: _80  and  _81
REMARK   33  A    between atoms: _84  and  _86
REMARK   34  A    between atoms: _86  and  _87
REMARK   35  A    between atoms: _90  and  _92
REMARK   36  A    between atoms: _92  and  _93
REMARK   37  A    between atoms: _92  and  _95
REMARK   38  A    between atoms: _95  and  _96
REMARK   39  A    between atoms: _96  and  _97
REMARK   40  A    between atoms: _97  and  _98
REMARK   41  A    between atoms: _107  and  _109
REMARK   42  A    between atoms: _109  and  _110
REMARK   43  A    between atoms: _109  and  _112
REMARK   44  A    between atoms: _112  and  _113
REMARK   45  A    between atoms: _116  and  _117
REMARK   46  A    between atoms: _122  and  _124
REMARK   47  A    between atoms: _124  and  _125
REMARK   48  A    between atoms: _124  and  _127
REMARK   49  A    between atoms: _129  and  _131
REMARK   50  A    between atoms: _131  and  _132
REMARK   51  A    between atoms: _131  and  _134
REMARK   52  A    between atoms: _134  and  _135
REMARK   53  A    between atoms: _138  and  _140
REMARK   54  A    between atoms: _140  and  _141
REMARK   55  A    between atoms: _140  and  _143
REMARK   56  A    between atoms: _143  and  _144
REMARK   57  A    between atoms: _147  and  _149
REMARK   58  A    between atoms: _149  and  _150
REMARK   59  A    between atoms: _149  and  _152
REMARK   60  A    between atoms: _152  and  _153
REMARK   61  A    between atoms: _153  and  _154
REMARK   62  A    between atoms: _154  and  _155
REMARK   63  A    between atoms: _165  and  _166
REMARK   64  A    between atoms: _171  and  _173
REMARK   65  A    between atoms: _173  and  _174
REMARK   66  A    between atoms: _173  and  _176
REMARK   67  A    between atoms: _176  and  _177
REMARK   68  A    between atoms: _179  and  _181
REMARK   69  A    between atoms: _181  and  _182
REMARK   70  A    between atoms: _181  and  _184
REMARK   71  A    between atoms: _184  and  _185
REMARK   72  A    between atoms: _191  and  _193
REMARK   73  A    between atoms: _193  and  _194
REMARK   74  A    between atoms: _193  and  _196
REMARK   75  A    between atoms: _196  and  _197
REMARK   76  A    between atoms: _200  and  _202
REMARK   77  A    between atoms: _202  and  _203
REMARK   78  A    between atoms: _202  and  _205
REMARK   79  A    between atoms: _205  and  _206
REMARK   80  A    between atoms: _206  and  _207
REMARK   81  A    between atoms: _209  and  _211
REMARK   82  A    between atoms: _211  and  _212
REMARK   83  A    between atoms: _214  and  _216
REMARK   84  A    between atoms: _216  and  _217
REMARK   85  A    between atoms: _219  and  _221
REMARK   86  A    between atoms: _221  and  _222
REMARK   87  A    between atoms: _221  and  _224
REMARK   88  A    between atoms: _224  and  _225
REMARK   89  A    between atoms: _227  and  _229
REMARK   90  A    between atoms: _229  and  _230
REMARK   91  A    between atoms: _232  and  _234
REMARK   92  A    between atoms: _234  and  _235
REMARK   93  A    between atoms: _237  and  _239
REMARK   94  A    between atoms: _239  and  _240
REMARK   95  A    between atoms: _242  and  _244
REMARK   96  A    between atoms: _244  and  _245
REMARK   97  A    between atoms: _244  and  _247
REMARK   98  A    between atoms: _247  and  _248
REMARK   99  A    between atoms: _251  and  _253
REMARK  100  A    between atoms: _253  and  _254
REMARK  101  A    between atoms: _253  and  _256
REMARK  102  A    between atoms: _256  and  _257
REMARK  103  A    between atoms: _262  and  _263
REMARK  104  A    between atoms: _265  and  _267
REMARK  105  A    between atoms: _267  and  _268
REMARK  106  A    between atoms: _267  and  _270
REMARK  107  A    between atoms: _270  and  _271
REMARK  108  A    between atoms: _274  and  _276
REMARK  109  A    between atoms: _276  and  _277
REMARK  110  A    between atoms: _276  and  _279
REMARK  111  A    between atoms: _279  and  _280
REMARK  112  A    between atoms: _283  and  _285
REMARK  113  A    between atoms: _285  and  _286
REMARK  114  A    between atoms: _285  and  _288
REMARK  115  A    between atoms: _288  and  _289
REMARK  116  A    between atoms: _292  and  _294
REMARK  117  A    between atoms: _294  and  _295
REMARK  118  A    between atoms: _294  and  _297
REMARK  119  A    between atoms: _297  and  _298
REMARK  120  A    between atoms: _298  and  _299
REMARK  121  A    between atoms: _302  and  _304
REMARK  122  A    between atoms: _304  and  _305
REMARK  123  A    between atoms: _304  and  _307
REMARK  124  A    between atoms: _307  and  _308
REMARK  125  A    between atoms: _310  and  _312
REMARK  126  A    between atoms: _312  and  _313
REMARK  127  A    between atoms: _312  and  _315
REMARK  128  A    between atoms: _315  and  _316
REMARK  129  A    between atoms: _319  and  _321
REMARK  130  A    between atoms: _321  and  _322
REMARK  131  A    between atoms: _321  and  _324
REMARK  132  A    between atoms: _324  and  _325
REMARK  133  A    between atoms: _328  and  _330
REMARK  134  A    between atoms: _330  and  _331
REMARK  135  A    between atoms: _333  and  _335
REMARK  136  A    between atoms: _335  and  _336
REMARK  137  A    between atoms: _335  and  _338
REMARK  138  A    between atoms: _338  and  _339
REMARK  139  A    between atoms: _349  and  _351
REMARK  140  A    between atoms: _351  and  _352
REMARK  141  A    between atoms: _351  and  _354
REMARK  142  A    between atoms: _354  and  _355
REMARK  143  A    between atoms: _355  and  _356
REMARK  144  A    between atoms: _356  and  _357
REMARK  145  A    between atoms: _357  and  _358
REMARK  146  A    between atoms: _362  and  _364
REMARK  147  A    between atoms: _364  and  _365
REMARK  148  A    between atoms: _364  and  _367
REMARK  149  A    between atoms: _367  and  _368
REMARK  150  A    between atoms: _368  and  _369
REMARK  151  A    between atoms: _372  and  _374
REMARK  152  A    between atoms: _374  and  _375
REMARK  153  A    between atoms: _374  and  _377
REMARK  154  A    between atoms: _377  and  _378
REMARK  155  A    between atoms: _383  and  _384
REMARK  156  A    between atoms: _386  and  _388
REMARK  157  A    between atoms: _388  and  _389
REMARK  158  A    between atoms: _388  and  _391
REMARK  159  A    between atoms: _391  and  _392
REMARK  160  A    between atoms: _392  and  _393
REMARK  161  A    between atoms: _396  and  _398
REMARK  162  A    between atoms: _398  and  _399
REMARK  163  A    between atoms: _398  and  _401
REMARK  164  A    between atoms: _401  and  _402
REMARK  165  A    between atoms: _407  and  _409
REMARK  166  A    between atoms: _409  and  _410
REMARK  167  A    between atoms: _409  and  _412
REMARK  168  A    between atoms: _412  and  _413
REMARK  169  A    between atoms: _416  and  _418
REMARK  170  A    between atoms: _418  and  _419
REMARK  171  A    between atoms: _422  and  _424
REMARK  172  A    between atoms: _424  and  _425
REMARK  173  A    between atoms: _424  and  _427
REMARK  174  A    between atoms: _427  and  _428
REMARK  175  A    between atoms: _428  and  _429
REMARK  176  A    between atoms: _431  and  _433
REMARK  177  A    between atoms: _433  and  _434
REMARK  178  A    between atoms: _436  and  _438
REMARK  179  A    between atoms: _438  and  _439
REMARK  180  A    between atoms: _438  and  _441
REMARK  181  A    between atoms: _441  and  _442
REMARK  182  A    between atoms: _445  and  _447
REMARK  183  A    between atoms: _447  and  _448
REMARK  184  A    between atoms: _447  and  _450
REMARK  185  A    between atoms: _450  and  _451
REMARK  186  A    between atoms: _456  and  _458
REMARK  187  A    between atoms: _458  and  _459
REMARK  188  A    between atoms: _458  and  _461
REMARK  189  A    between atoms: _461  and  _462
REMARK  190  A    between atoms: _465  and  _467
REMARK  191  A    between atoms: _467  and  _468
REMARK  192  A    between atoms: _470  and  _472
REMARK  193  A    between atoms: _472  and  _473
REMARK  194  A    between atoms: _472  and  _475
REMARK  195  A    between atoms: _475  and  _476
REMARK  196  A    between atoms: _479  and  _481
REMARK  197  A    between atoms: _481  and  _482
REMARK  198  A    between atoms: _481  and  _484
REMARK  199  A    between atoms: _484  and  _485
REMARK  200  A    between atoms: _487  and  _489
REMARK  201  A    between atoms: _489  and  _490
REMARK  202  A    between atoms: _489  and  _492
REMARK  203  A    between atoms: _492  and  _493
REMARK  204  A    between atoms: _498  and  _500
REMARK  205  A    between atoms: _500  and  _501
REMARK  206  A    between atoms: _500  and  _503
REMARK  207  A    between atoms: _503  and  _504
REMARK  208  A    between atoms: _504  and  _505
REMARK  209  A    between atoms: _510  and  _512
REMARK  210  A    between atoms: _512  and  _513
REMARK  211  A    between atoms: _512  and  _515
REMARK  212  A    between atoms: _515  and  _516
REMARK  213  A    between atoms: _522  and  _524
REMARK  214  A    between atoms: _524  and  _525
REMARK  215  A    between atoms: _528  and  _530
REMARK  216  A    between atoms: _530  and  _531
REMARK  217  A    between atoms: _530  and  _533
REMARK  218  A    between atoms: _533  and  _534
REMARK  219  A    between atoms: _537  and  _539
REMARK  220  A    between atoms: _539  and  _540
REMARK  221  A    between atoms: _539  and  _542
REMARK  222  A    between atoms: _545  and  _547
REMARK  223  A    between atoms: _547  and  _548
REMARK  224  A    between atoms: _547  and  _550
REMARK  225  A    between atoms: _550  and  _551
REMARK  226  A    between atoms: _554  and  _556
REMARK  227  A    between atoms: _566  and  _569
REMARK  228  A    between atoms: _569  and  _570
REMARK  229  A    between atoms: _570  and  _571
REMARK  230  A    between atoms: _575  and  _576
REMARK  231  A    between atoms: _579  and  _581
REMARK  232  A    between atoms: _585  and  _586
REMARK  233  A    between atoms: _591  and  _593
REMARK  234  A    between atoms: _593  and  _594
REMARK  235  A    between atoms: _593  and  _596
REMARK  236  A    between atoms: _596  and  _597
REMARK  237  A    between atoms: _597  and  _598
REMARK  238  A    between atoms: _598  and  _599
REMARK  239  A    between atoms: _608  and  _610
REMARK  240  A    between atoms: _610  and  _611
REMARK  241  A    between atoms: _610  and  _613
REMARK  242  A    between atoms: _616  and  _618
REMARK  243  A    between atoms: _618  and  _619
REMARK  244  A    between atoms: _618  and  _621
REMARK  245  A    between atoms: _621  and  _622
REMARK  246  A    between atoms: _624  and  _626
REMARK  247  A    between atoms: _626  and  _627
REMARK  248  A    between atoms: _626  and  _629
REMARK  249  A    between atoms: _629  and  _630
REMARK  250  A    between atoms: _630  and  _631
REMARK  251  A    between atoms: _631  and  _632
REMARK  252  A    between atoms: _641  and  _643
REMARK  253  A    between atoms: _643  and  _644
REMARK  254  A    between atoms: _643  and  _646
REMARK  255  A    between atoms: _646  and  _647
REMARK  256  A    between atoms: _649  and  _651
REMARK  257  A    between atoms: _651  and  _652
REMARK  258  A    between atoms: _651  and  _654
REMARK  259  A    between atoms: _654  and  _655
REMARK  260  A    between atoms: _658  and  _660
REMARK  261  A    between atoms: _660  and  _661
REMARK  262  A    between atoms: _660  and  _663
REMARK  263  A    between atoms: _663  and  _664
REMARK  264  A    between atoms: _667  and  _669
REMARK  265  A    between atoms: _669  and  _670
REMARK  266  A    between atoms: _669  and  _672
REMARK  267  A    between atoms: _672  and  _673
REMARK  268  A    between atoms: _673  and  _674
REMARK  269  A    between atoms: _679  and  _681
REMARK  270  A    between atoms: _681  and  _682
REMARK  271  A    between atoms: _681  and  _684
REMARK  272  A    between atoms: _684  and  _685
REMARK  273  A    between atoms: _685  and  _686
REMARK  274  A    between atoms: _688  and  _690
REMARK  275  A    between atoms: _690  and  _691
REMARK  276  A    between atoms: _690  and  _693
REMARK  277  A    between atoms: _693  and  _694
REMARK  278  A    between atoms: _694  and  _695
REMARK  279  A    between atoms: _695  and  _696
REMARK  280  A    between atoms: _696  and  _697
REMARK                            x       y       z     vdW  Elec       q    Type
REMARK                         _______ _______ _______ _____ _____    ______ ____
ROOT
ATOM      1  O   HOH     1      22.515  28.083  63.428  0.00  0.00    +0.000 OA
ENDROOT
TORSDOF 0
REMARK  Name = ../refined-set-2016/1bxr/1bxr_pocket.pdb
REMARK  280 active torsions:
REMARK  status: ('A' for Active; 'I' for Inactive)
REMARK    1  A    between atoms: _1  and  _3
REMARK    2  A    between atoms: _3  and  _4
REMARK    3  A    between atoms: _6  and  _8
REMARK    4  A    between atoms: _8  and  _9
REMARK    5  A    between atoms: _8  and  _11
REMARK    6  A    between atoms: _11  and  _12
REMARK    7  A    between atoms: _12  and  _13
REMARK    8  A    between atoms: _18  and  _20
REMARK    9  A    between atoms: _20  and  _21
REMARK   10  A    between atoms: _20  and  _23
REMARK   11  A    between atoms: _23  and  _24
REMARK   12  A    between atoms: _30  and  _32
REMARK   13  A    between atoms: _32  and  _33
REMARK   14  A    between atoms: _32  and  _35
REMARK   15  A    between atoms: _35  and  _36
REMARK   16  A    between atoms: _36  and  _37
REMARK   17  A    between atoms: _42  and  _44
REMARK   18  A    between atoms: _44  and  _45
REMARK   19  A    between atoms: _48  and  _50
REMARK   20  A    between atoms: _50  and  _51
REMARK   21  A    between atoms: _50  and  _53
REMARK   22  A    between atoms: _53  and  _54
REMARK   23  A    between atoms: _54  and  _55
REMARK   24  A    between atoms: _58  and  _60
REMARK   25  A    between atoms: _60  and  _61
REMARK   26  A    between atoms: _60  and  _63
REMARK   27  A    between atoms: _63  and  _64
REMARK   28  A    between atoms: _65  and  _66
REMARK   29  A    between atoms: _75  and  _77
REMARK   30  A    between atoms: _77  and  _78
REMARK   31  A    between atoms: _77  and  _80
REMARK   32  A    between atoms: _80  and  _81
REMARK   33  A    between atoms: _84  and  _86
REMARK   34  A    between atoms: _86  and  _87
REMARK   35  A    between atoms: _90  and  _92
REMARK   36  A    between atoms: _92  and  _93
REMARK   37  A    between atoms: _92  and  _95
REMARK   38  A    between atoms: _95  and  _96
REMARK   39  A    between atoms: _96  and  _97
REMARK   40  A    between atoms: _97  and  _98
REMARK   41  A    between atoms: _107  and  _109
REMARK   42  A    between atoms: _109  and  _110
REMARK   43  A    between atoms: _109  and  _112
REMARK   44  A    between atoms: _112  and  _113
REMARK   45  A    between atoms: _116  and  _117
REMARK   46  A    between atoms: _122  and  _124
REMARK   47  A    between atoms: _124  and  _125
REMARK   48  A    between atoms: _124  and  _127
REMARK   49  A    between atoms: _129  and  _131
REMARK   50  A    between atoms: _131  and  _132
REMARK   51  A    between atoms: _131  and  _134
REMARK   52  A    between atoms: _134  and  _135
REMARK   53  A    between atoms: _138  and  _140
REMARK   54  A    between atoms: _140  and  _141
REMARK   55  A    between atoms: _140  and  _143
REMARK   56  A    between atoms: _143  and  _144
REMARK   57  A    between atoms: _147  and  _149
REMARK   58  A    between atoms: _149  and  _150
REMARK   59  A    between atoms: _149  and  _152
REMARK   60  A    between atoms: _152  and  _153
REMARK   61  A    between atoms: _153  and  _154
REMARK   62  A    between atoms: _154  and  _155
REMARK   63  A    between atoms: _165  and  _166
REMARK   64  A    between atoms: _171  and  _173
REMARK   65  A    between atoms: _173  and  _174
REMARK   66  A    between atoms: _173  and  _176
REMARK   67  A    between atoms: _176  and  _177
REMARK   68  A    between atoms: _179  and  _181
REMARK   69  A    between atoms: _181  and  _182
REMARK   70  A    between atoms: _181  and  _184
REMARK   71  A    between atoms: _184  and  _185
REMARK   72  A    between atoms: _191  and  _193
REMARK   73  A    between atoms: _193  and  _194
REMARK   74  A    between atoms: _193  and  _196
REMARK   75  A    between atoms: _196  and  _197
REMARK   76  A    between atoms: _200  and  _202
REMARK   77  A    between atoms: _202  and  _203
REMARK   78  A    between atoms: _202  and  _205
REMARK   79  A    between atoms: _205  and  _206
REMARK   80  A    between atoms: _206  and  _207
REMARK   81  A    between atoms: _209  and  _211
REMARK   82  A    between atoms: _211  and  _212
REMARK   83  A    between atoms: _214  and  _216
REMARK   84  A    between atoms: _216  and  _217
REMARK   85  A    between atoms: _219  and  _221
REMARK   86  A    between atoms: _221  and  _222
REMARK   87  A    between atoms: _221  and  _224
REMARK   88  A    between atoms: _224  and  _225
REMARK   89  A    between atoms: _227  and  _229
REMARK   90  A    between atoms: _229  and  _230
REMARK   91  A    between atoms: _232  and  _234
REMARK   92  A    between atoms: _234  and  _235
REMARK   93  A    between atoms: _237  and  _239
REMARK   94  A    between atoms: _239  and  _240
REMARK   95  A    between atoms: _242  and  _244
REMARK   96  A    between atoms: _244  and  _245
REMARK   97  A    between atoms: _244  and  _247
REMARK   98  A    between atoms: _247  and  _248
REMARK   99  A    between atoms: _251  and  _253
REMARK  100  A    between atoms: _253  and  _254
REMARK  101  A    between atoms: _253  and  _256
REMARK  102  A    between atoms: _256  and  _257
REMARK  103  A    between atoms: _262  and  _263
REMARK  104  A    between atoms: _265  and  _267
REMARK  105  A    between atoms: _267  and  _268
REMARK  106  A    between atoms: _267  and  _270
REMARK  107  A    between atoms: _270  and  _271
REMARK  108  A    between atoms: _274  and  _276
REMARK  109  A    between atoms: _276  and  _277
REMARK  110  A    between atoms: _276  and  _279
REMARK  111  A    between atoms: _279  and  _280
REMARK  112  A    between atoms: _283  and  _285
REMARK  113  A    between atoms: _285  and  _286
REMARK  114  A    between atoms: _285  and  _288
REMARK  115  A    between atoms: _288  and  _289
REMARK  116  A    between atoms: _292  and  _294
REMARK  117  A    between atoms: _294  and  _295
REMARK  118  A    between atoms: _294  and  _297
REMARK  119  A    between atoms: _297  and  _298
REMARK  120  A    between atoms: _298  and  _299
REMARK  121  A    between atoms: _302  and  _304
REMARK  122  A    between atoms: _304  and  _305
REMARK  123  A    between atoms: _304  and  _307
REMARK  124  A    between atoms: _307  and  _308
REMARK  125  A    between atoms: _310  and  _312
REMARK  126  A    between atoms: _312  and  _313
REMARK  127  A    between atoms: _312  and  _315
REMARK  128  A    between atoms: _315  and  _316
REMARK  129  A    between atoms: _319  and  _321
REMARK  130  A    between atoms: _321  and  _322
REMARK  131  A    between atoms: _321  and  _324
REMARK  132  A    between atoms: _324  and  _325
REMARK  133  A    between atoms: _328  and  _330
REMARK  134  A    between atoms: _330  and  _331
REMARK  135  A    between atoms: _333  and  _335
REMARK  136  A    between atoms: _335  and  _336
REMARK  137  A    between atoms: _335  and  _338
REMARK  138  A    between atoms: _338  and  _339
REMARK  139  A    between atoms: _349  and  _351
REMARK  140  A    between atoms: _351  and  _352
REMARK  141  A    between atoms: _351  and  _354
REMARK  142  A    between atoms: _354  and  _355
REMARK  143  A    between atoms: _355  and  _356
REMARK  144  A    between atoms: _356  and  _357
REMARK  145  A    between atoms: _357  and  _358
REMARK  146  A    between atoms: _362  and  _364
REMARK  147  A    between atoms: _364  and  _365
REMARK  148  A    between atoms: _364  and  _367
REMARK  149  A    between atoms: _367  and  _368
REMARK  150  A    between atoms: _368  and  _369
REMARK  151  A    between atoms: _372  and  _374
REMARK  152  A    between atoms: _374  and  _375
REMARK  153  A    between atoms: _374  and  _377
REMARK  154  A    between atoms: _377  and  _378
REMARK  155  A    between atoms: _383  and  _384
REMARK  156  A    between atoms: _386  and  _388
REMARK  157  A    between atoms: _388  and  _389
REMARK  158  A    between atoms: _388  and  _391
REMARK  159  A    between atoms: _391  and  _392
REMARK  160  A    between atoms: _392  and  _393
REMARK  161  A    between atoms: _396  and  _398
REMARK  162  A    between atoms: _398  and  _399
REMARK  163  A    between atoms: _398  and  _401
REMARK  164  A    between atoms: _401  and  _402
REMARK  165  A    between atoms: _407  and  _409
REMARK  166  A    between atoms: _409  and  _410
REMARK  167  A    between atoms: _409  and  _412
REMARK  168  A    between atoms: _412  and  _413
REMARK  169  A    between atoms: _416  and  _418
REMARK  170  A    between atoms: _418  and  _419
REMARK  171  A    between atoms: _422  and  _424
REMARK  172  A    between atoms: _424  and  _425
REMARK  173  A    between atoms: _424  and  _427
REMARK  174  A    between atoms: _427  and  _428
REMARK  175  A    between atoms: _428  and  _429
REMARK  176  A    between atoms: _431  and  _433
REMARK  177  A    between atoms: _433  and  _434
REMARK  178  A    between atoms: _436  and  _438
REMARK  179  A    between atoms: _438  and  _439
REMARK  180  A    between atoms: _438  and  _441
REMARK  181  A    between atoms: _441  and  _442
REMARK  182  A    between atoms: _445  and  _447
REMARK  183  A    between atoms: _447  and  _448
REMARK  184  A    between atoms: _447  and  _450
REMARK  185  A    between atoms: _450  and  _451
REMARK  186  A    between atoms: _456  and  _458
REMARK  187  A    between atoms: _458  and  _459
REMARK  188  A    between atoms: _458  and  _461
REMARK  189  A    between atoms: _461  and  _462
REMARK  190  A    between atoms: _465  and  _467
REMARK  191  A    between atoms: _467  and  _468
REMARK  192  A    between atoms: _470  and  _472
REMARK  193  A    between atoms: _472  and  _473
REMARK  194  A    between atoms: _472  and  _475
REMARK  195  A    between atoms: _475  and  _476
REMARK  196  A    between atoms: _479  and  _481
REMARK  197  A    between atoms: _481  and  _482
REMARK  198  A    between atoms: _481  and  _484
REMARK  199  A    between atoms: _484  and  _485
REMARK  200  A    between atoms: _487  and  _489
REMARK  201  A    between atoms: _489  and  _490
REMARK  202  A    between atoms: _489  and  _492
REMARK  203  A    between atoms: _492  and  _493
REMARK  204  A    between atoms: _498  and  _500
REMARK  205  A    between atoms: _500  and  _501
REMARK  206  A    between atoms: _500  and  _503
REMARK  207  A    between atoms: _503  and  _504
REMARK  208  A    between atoms: _504  and  _505
REMARK  209  A    between atoms: _510  and  _512
REMARK  210  A    between atoms: _512  and  _513
REMARK  211  A    between atoms: _512  and  _515
REMARK  212  A    between atoms: _515  and  _516
REMARK  213  A    between atoms: _522  and  _524
REMARK  214  A    between atoms: _524  and  _525
REMARK  215  A    between atoms: _528  and  _530
REMARK  216  A    between atoms: _530  and  _531
REMARK  217  A    between atoms: _530  and  _533
REMARK  218  A    between atoms: _533  and  _534
REMARK  219  A    between atoms: _537  and  _539
REMARK  220  A    between atoms: _539  and  _540
REMARK  221  A    between atoms: _539  and  _542
REMARK  222  A    between atoms: _545  and  _547
REMARK  223  A    between atoms: _547  and  _548
REMARK  224  A    between atoms: _547  and  _550
REMARK  225  A    between atoms: _550  and  _551
REMARK  226  A    between atoms: _554  and  _556
REMARK  227  A    between atoms: _566  and  _569
REMARK  228  A    between atoms: _569  and  _570
REMARK  229  A    between atoms: _570  and  _571
REMARK  230  A    between atoms: _575  and  _576
REMARK  231  A    between atoms: _579  and  _581
REMARK  232  A    between atoms: _585  and  _586
REMARK  233  A    between atoms: _591  and  _593
REMARK  234  A    between atoms: _593  and  _594
REMARK  235  A    between atoms: _593  and  _596
REMARK  236  A    between atoms: _596  and  _597
REMARK  237  A    between atoms: _597  and  _598
REMARK  238  A    between atoms: _598  and  _599
REMARK  239  A    between atoms: _608  and  _610
REMARK  240  A    between atoms: _610  and  _611
REMARK  241  A    between atoms: _610  and  _613
REMARK  242  A    between atoms: _616  and  _618
REMARK  243  A    between atoms: _618  and  _619
REMARK  244  A    between atoms: _618  and  _621
REMARK  245  A    between atoms: _621  and  _622
REMARK  246  A    between atoms: _624  and  _626
REMARK  247  A    between atoms: _626  and  _627
REMARK  248  A    between atoms: _626  and  _629
REMARK  249  A    between atoms: _629  and  _630
REMARK  250  A    between atoms: _630  and  _631
REMARK  251  A    between atoms: _631  and  _632
REMARK  252  A    between atoms: _641  and  _643
REMARK  253  A    between atoms: _643  and  _644
REMARK  254  A    between atoms: _643  and  _646
REMARK  255  A    between atoms: _646  and  _647
REMARK  256  A    between atoms: _649  and  _651
REMARK  257  A    between atoms: _651  and  _652
REMARK  258  A    between atoms: _651  and  _654
REMARK  259  A    between atoms: _654  and  _655
REMARK  260  A    between atoms: _658  and  _660
REMARK  261  A    between atoms: _660  and  _661
REMARK  262  A    between atoms: _660  and  _663
REMARK  263  A    between atoms: _663  and  _664
REMARK  264  A    between atoms: _667  and  _669
REMARK  265  A    between atoms: _669  and  _670
REMARK  266  A    between atoms: _669  and  _672
REMARK  267  A    between atoms: _672  and  _673
REMARK  268  A    between atoms: _673  and  _674
REMARK  269  A    between atoms: _679  and  _681
REMARK  270  A    between atoms: _681  and  _682
REMARK  271  A    between atoms: _681  and  _684
REMARK  272  A    between atoms: _684  and  _685
REMARK  273  A    between atoms: _685  and  _686
REMARK  274  A    between atoms: _688  and  _690
REMARK  275  A    between atoms: _690  and  _691
REMARK  276  A    between atoms: _690  and  _693
REMARK  277  A    between atoms: _693  and  _694
REMARK  278  A    between atoms: _694  and  _695
REMARK  279  A    between atoms: _695  and  _696
REMARK  280  A    between atoms: _696  and  _697
REMARK                            x       y       z     vdW  Elec       q    Type
REMARK                         _______ _______ _______ _____ _____    ______ ____
ROOT
ATOM      1  O   HOH     1      28.257  29.681  68.999  0.00  0.00    +0.000 OA
ENDROOT
TORSDOF 0
REMARK  Name = ../refined-set-2016/1bxr/1bxr_pocket.pdb
REMARK  280 active torsions:
REMARK  status: ('A' for Active; 'I' for Inactive)
REMARK    1  A    between atoms: _1  and  _3
REMARK    2  A    between atoms: _3  and  _4
REMARK    3  A    between atoms: _6  and  _8
REMARK    4  A    between atoms: _8  and  _9
REMARK    5  A    between atoms: _8  and  _11
REMARK    6  A    between atoms: _11  and  _12
REMARK    7  A    between atoms: _12  and  _13
REMARK    8  A    between atoms: _18  and  _20
REMARK    9  A    between atoms: _20  and  _21
REMARK   10  A    between atoms: _20  and  _23
REMARK   11  A    between atoms: _23  and  _24
REMARK   12  A    between atoms: _30  and  _32
REMARK   13  A    between atoms: _32  and  _33
REMARK   14  A    between atoms: _32  and  _35
REMARK   15  A    between atoms: _35  and  _36
REMARK   16  A    between atoms: _36  and  _37
REMARK   17  A    between atoms: _42  and  _44
REMARK   18  A    between atoms: _44  and  _45
REMARK   19  A    between atoms: _48  and  _50
REMARK   20  A    between atoms: _50  and  _51
REMARK   21  A    between atoms: _50  and  _53
REMARK   22  A    between atoms: _53  and  _54
REMARK   23  A    between atoms: _54  and  _55
REMARK   24  A    between atoms: _58  and  _60
REMARK   25  A    between atoms: _60  and  _61
REMARK   26  A    between atoms: _60  and  _63
REMARK   27  A    between atoms: _63  and  _64
REMARK   28  A    between atoms: _65  and  _66
REMARK   29  A    between atoms: _75  and  _77
REMARK   30  A    between atoms: _77  and  _78
REMARK   31  A    between atoms: _77  and  _80
REMARK   32  A    between atoms: _80  and  _81
REMARK   33  A    between atoms: _84  and  _86
REMARK   34  A    between atoms: _86  and  _87
REMARK   35  A    between atoms: _90  and  _92
REMARK   36  A    between atoms: _92  and  _93
REMARK   37  A    between atoms: _92  and  _95
REMARK   38  A    between atoms: _95  and  _96
REMARK   39  A    between atoms: _96  and  _97
REMARK   40  A    between atoms: _97  and  _98
REMARK   41  A    between atoms: _107  and  _109
REMARK   42  A    between atoms: _109  and  _110
REMARK   43  A    between atoms: _109  and  _112
REMARK   44  A    between atoms: _112  and  _113
REMARK   45  A    between atoms: _116  and  _117
REMARK   46  A    between atoms: _122  and  _124
REMARK   47  A    between atoms: _124  and  _125
REMARK   48  A    between atoms: _124  and  _127
REMARK   49  A    between atoms: _129  and  _131
REMARK   50  A    between atoms: _131  and  _132
REMARK   51  A    between atoms: _131  and  _134
REMARK   52  A    between atoms: _134  and  _135
REMARK   53  A    between atoms: _138  and  _140
REMARK   54  A    between atoms: _140  and  _141
REMARK   55  A    between atoms: _140  and  _143
REMARK   56  A    between atoms: _143  and  _144
REMARK   57  A    between atoms: _147  and  _149
REMARK   58  A    between atoms: _149  and  _150
REMARK   59  A    between atoms: _149  and  _152
REMARK   60  A    between atoms: _152  and  _153
REMARK   61  A    between atoms: _153  and  _154
REMARK   62  A    between atoms: _154  and  _155
REMARK   63  A    between atoms: _165  and  _166
REMARK   64  A    between atoms: _171  and  _173
REMARK   65  A    between atoms: _173  and  _174
REMARK   66  A    between atoms: _173  and  _176
REMARK   67  A    between atoms: _176  and  _177
REMARK   68  A    between atoms: _179  and  _181
REMARK   69  A    between atoms: _181  and  _182
REMARK   70  A    between atoms: _181  and  _184
REMARK   71  A    between atoms: _184  and  _185
REMARK   72  A    between atoms: _191  and  _193
REMARK   73  A    between atoms: _193  and  _194
REMARK   74  A    between atoms: _193  and  _196
REMARK   75  A    between atoms: _196  and  _197
REMARK   76  A    between atoms: _200  and  _202
REMARK   77  A    between atoms: _202  and  _203
REMARK   78  A    between atoms: _202  and  _205
REMARK   79  A    between atoms: _205  and  _206
REMARK   80  A    between atoms: _206  and  _207
REMARK   81  A    between atoms: _209  and  _211
REMARK   82  A    between atoms: _211  and  _212
REMARK   83  A    between atoms: _214  and  _216
REMARK   84  A    between atoms: _216  and  _217
REMARK   85  A    between atoms: _219  and  _221
REMARK   86  A    between atoms: _221  and  _222
REMARK   87  A    between atoms: _221  and  _224
REMARK   88  A    between atoms: _224  and  _225
REMARK   89  A    between atoms: _227  and  _229
REMARK   90  A    between atoms: _229  and  _230
REMARK   91  A    between atoms: _232  and  _234
REMARK   92  A    between atoms: _234  and  _235
REMARK   93  A    between atoms: _237  and  _239
REMARK   94  A    between atoms: _239  and  _240
REMARK   95  A    between atoms: _242  and  _244
REMARK   96  A    between atoms: _244  and  _245
REMARK   97  A    between atoms: _244  and  _247
REMARK   98  A    between atoms: _247  and  _248
REMARK   99  A    between atoms: _251  and  _253
REMARK  100  A    between atoms: _253  and  _254
REMARK  101  A    between atoms: _253  and  _256
REMARK  102  A    between atoms: _256  and  _257
REMARK  103  A    between atoms: _262  and  _263
REMARK  104  A    between atoms: _265  and  _267
REMARK  105  A    between atoms: _267  and  _268
REMARK  106  A    between atoms: _267  and  _270
REMARK  107  A    between atoms: _270  and  _271
REMARK  108  A    between atoms: _274  and  _276
REMARK  109  A    between atoms: _276  and  _277
REMARK  110  A    between atoms: _276  and  _279
REMARK  111  A    between atoms: _279  and  _280
REMARK  112  A    between atoms: _283  and  _285
REMARK  113  A    between atoms: _285  and  _286
REMARK  114  A    between atoms: _285  and  _288
REMARK  115  A    between atoms: _288  and  _289
REMARK  116  A    between atoms: _292  and  _294
REMARK  117  A    between atoms: _294  and  _295
REMARK  118  A    between atoms: _294  and  _297
REMARK  119  A    between atoms: _297  and  _298
REMARK  120  A    between atoms: _298  and  _299
REMARK  121  A    between atoms: _302  and  _304
REMARK  122  A    between atoms: _304  and  _305
REMARK  123  A    between atoms: _304  and  _307
REMARK  124  A    between atoms: _307  and  _308
REMARK  125  A    between atoms: _310  and  _312
REMARK  126  A    between atoms: _312  and  _313
REMARK  127  A    between atoms: _312  and  _315
REMARK  128  A    between atoms: _315  and  _316
REMARK  129  A    between atoms: _319  and  _321
REMARK  130  A    between atoms: _321  and  _322
REMARK  131  A    between atoms: _321  and  _324
REMARK  132  A    between atoms: _324  and  _325
REMARK  133  A    between atoms: _328  and  _330
REMARK  134  A    between atoms: _330  and  _331
REMARK  135  A    between atoms: _333  and  _335
REMARK  136  A    between atoms: _335  and  _336
REMARK  137  A    between atoms: _335  and  _338
REMARK  138  A    between atoms: _338  and  _339
REMARK  139  A    between atoms: _349  and  _351
REMARK  140  A    between atoms: _351  and  _352
REMARK  141  A    between atoms: _351  and  _354
REMARK  142  A    between atoms: _354  and  _355
REMARK  143  A    between atoms: _355  and  _356
REMARK  144  A    between atoms: _356  and  _357
REMARK  145  A    between atoms: _357  and  _358
REMARK  146  A    between atoms: _362  and  _364
REMARK  147  A    between atoms: _364  and  _365
REMARK  148  A    between atoms: _364  and  _367
REMARK  149  A    between atoms: _367  and  _368
REMARK  150  A    between atoms: _368  and  _369
REMARK  151  A    between atoms: _372  and  _374
REMARK  152  A    between atoms: _374  and  _375
REMARK  153  A    between atoms: _374  and  _377
REMARK  154  A    between atoms: _377  and  _378
REMARK  155  A    between atoms: _383  and  _384
REMARK  156  A    between atoms: _386  and  _388
REMARK  157  A    between atoms: _388  and  _389
REMARK  158  A    between atoms: _388  and  _391
REMARK  159  A    between atoms: _391  and  _392
REMARK  160  A    between atoms: _392  and  _393
REMARK  161  A    between atoms: _396  and  _398
REMARK  162  A    between atoms: _398  and  _399
REMARK  163  A    between atoms: _398  and  _401
REMARK  164  A    between atoms: _401  and  _402
REMARK  165  A    between atoms: _407  and  _409
REMARK  166  A    between atoms: _409  and  _410
REMARK  167  A    between atoms: _409  and  _412
REMARK  168  A    between atoms: _412  and  _413
REMARK  169  A    between atoms: _416  and  _418
REMARK  170  A    between atoms: _418  and  _419
REMARK  171  A    between atoms: _422  and  _424
REMARK  172  A    between atoms: _424  and  _425
REMARK  173  A    between atoms: _424  and  _427
REMARK  174  A    between atoms: _427  and  _428
REMARK  175  A    between atoms: _428  and  _429
REMARK  176  A    between atoms: _431  and  _433
REMARK  177  A    between atoms: _433  and  _434
REMARK  178  A    between atoms: _436  and  _438
REMARK  179  A    between atoms: _438  and  _439
REMARK  180  A    between atoms: _438  and  _441
REMARK  181  A    between atoms: _441  and  _442
REMARK  182  A    between atoms: _445  and  _447
REMARK  183  A    between atoms: _447  and  _448
REMARK  184  A    between atoms: _447  and  _450
REMARK  185  A    between atoms: _450  and  _451
REMARK  186  A    between atoms: _456  and  _458
REMARK  187  A    between atoms: _458  and  _459
REMARK  188  A    between atoms: _458  and  _461
REMARK  189  A    between atoms: _461  and  _462
REMARK  190  A    between atoms: _465  and  _467
REMARK  191  A    between atoms: _467  and  _468
REMARK  192  A    between atoms: _470  and  _472
REMARK  193  A    between atoms: _472  and  _473
REMARK  194  A    between atoms: _472  and  _475
REMARK  195  A    between atoms: _475  and  _476
REMARK  196  A    between atoms: _479  and  _481
REMARK  197  A    between atoms: _481  and  _482
REMARK  198  A    between atoms: _481  and  _484
REMARK  199  A    between atoms: _484  and  _485
REMARK  200  A    between atoms: _487  and  _489
REMARK  201  A    between atoms: _489  and  _490
REMARK  202  A    between atoms: _489  and  _492
REMARK  203  A    between atoms: _492  and  _493
REMARK  204  A    between atoms: _498  and  _500
REMARK  205  A    between atoms: _500  and  _501
REMARK  206  A    between atoms: _500  and  _503
REMARK  207  A    between atoms: _503  and  _504
REMARK  208  A    between atoms: _504  and  _505
REMARK  209  A    between atoms: _510  and  _512
REMARK  210  A    between atoms: _512  and  _513
REMARK  211  A    between atoms: _512  and  _515
REMARK  212  A    between atoms: _515  and  _516
REMARK  213  A    between atoms: _522  and  _524
REMARK  214  A    between atoms: _524  and  _525
REMARK  215  A    between atoms: _528  and  _530
REMARK  216  A    between atoms: _530  and  _531
REMARK  217  A    between atoms: _530  and  _533
REMARK  218  A    between atoms: _533  and  _534
REMARK  219  A    between atoms: _537  and  _539
REMARK  220  A    between atoms: _539  and  _540
REMARK  221  A    between atoms: _539  and  _542
REMARK  222  A    between atoms: _545  and  _547
REMARK  223  A    between atoms: _547  and  _548
REMARK  224  A    between atoms: _547  and  _550
REMARK  225  A    between atoms: _550  and  _551
REMARK  226  A    between atoms: _554  and  _556
REMARK  227  A    between atoms: _566  and  _569
REMARK  228  A    between atoms: _569  and  _570
REMARK  229  A    between atoms: _570  and  _571
REMARK  230  A    between atoms: _575  and  _576
REMARK  231  A    between atoms: _579  and  _581
REMARK  232  A    between atoms: _585  and  _586
REMARK  233  A    between atoms: _591  and  _593
REMARK  234  A    between atoms: _593  and  _594
REMARK  235  A    between atoms: _593  and  _596
REMARK  236  A    between atoms: _596  and  _597
REMARK  237  A    between atoms: _597  and  _598
REMARK  238  A    between atoms: _598  and  _599
REMARK  239  A    between atoms: _608  and  _610
REMARK  240  A    between atoms: _610  and  _611
REMARK  241  A    between atoms: _610  and  _613
REMARK  242  A    between atoms: _616  and  _618
REMARK  243  A    between atoms: _618  and  _619
REMARK  244  A    between atoms: _618  and  _621
REMARK  245  A    between atoms: _621  and  _622
REMARK  246  A    between atoms: _624  and  _626
REMARK  247  A    between atoms: _626  and  _627
REMARK  248  A    between atoms: _626  and  _629
REMARK  249  A    between atoms: _629  and  _630
REMARK  250  A    between atoms: _630  and  _631
REMARK  251  A    between atoms: _631  and  _632
REMARK  252  A    between atoms: _641  and  _643
REMARK  253  A    between atoms: _643  and  _644
REMARK  254  A    between atoms: _643  and  _646
REMARK  255  A    between atoms: _646  and  _647
REMARK  256  A    between atoms: _649  and  _651
REMARK  257  A    between atoms: _651  and  _652
REMARK  258  A    between atoms: _651  and  _654
REMARK  259  A    between atoms: _654  and  _655
REMARK  260  A    between atoms: _658  and  _660
REMARK  261  A    between atoms: _660  and  _661
REMARK  262  A    between atoms: _660  and  _663
REMARK  263  A    between atoms: _663  and  _664
REMARK  264  A    between atoms: _667  and  _669
REMARK  265  A    between atoms: _669  and  _670
REMARK  266  A    between atoms: _669  and  _672
REMARK  267  A    between atoms: _672  and  _673
REMARK  268  A    between atoms: _673  and  _674
REMARK  269  A    between atoms: _679  and  _681
REMARK  270  A    between atoms: _681  and  _682
REMARK  271  A    between atoms: _681  and  _684
REMARK  272  A    between atoms: _684  and  _685
REMARK  273  A    between atoms: _685  and  _686
REMARK  274  A    between atoms: _688  and  _690
REMARK  275  A    between atoms: _690  and  _691
REMARK  276  A    between atoms: _690  and  _693
REMARK  277  A    between atoms: _693  and  _694
REMARK  278  A    between atoms: _694  and  _695
REMARK  279  A    between atoms: _695  and  _696
REMARK  280  A    between atoms: _696  and  _697
REMARK                            x       y       z     vdW  Elec       q    Type
REMARK                         _______ _______ _______ _____ _____    ______ ____
ROOT
ATOM      1  O   HOH     1      21.312  21.922  68.202  0.00  0.00    +0.000 OA
ENDROOT
TORSDOF 0
REMARK  Name = ../refined-set-2016/1bxr/1bxr_pocket.pdb
REMARK  280 active torsions:
REMARK  status: ('A' for Active; 'I' for Inactive)
REMARK    1  A    between atoms: _1  and  _3
REMARK    2  A    between atoms: _3  and  _4
REMARK    3  A    between atoms: _6  and  _8
REMARK    4  A    between atoms: _8  and  _9
REMARK    5  A    between atoms: _8  and  _11
REMARK    6  A    between atoms: _11  and  _12
REMARK    7  A    between atoms: _12  and  _13
REMARK    8  A    between atoms: _18  and  _20
REMARK    9  A    between atoms: _20  and  _21
REMARK   10  A    between atoms: _20  and  _23
REMARK   11  A    between atoms: _23  and  _24
REMARK   12  A    between atoms: _30  and  _32
REMARK   13  A    between atoms: _32  and  _33
REMARK   14  A    between atoms: _32  and  _35
REMARK   15  A    between atoms: _35  and  _36
REMARK   16  A    between atoms: _36  and  _37
REMARK   17  A    between atoms: _42  and  _44
REMARK   18  A    between atoms: _44  and  _45
REMARK   19  A    between atoms: _48  and  _50
REMARK   20  A    between atoms: _50  and  _51
REMARK   21  A    between atoms: _50  and  _53
REMARK   22  A    between atoms: _53  and  _54
REMARK   23  A    between atoms: _54  and  _55
REMARK   24  A    between atoms: _58  and  _60
REMARK   25  A    between atoms: _60  and  _61
REMARK   26  A    between atoms: _60  and  _63
REMARK   27  A    between atoms: _63  and  _64
REMARK   28  A    between atoms: _65  and  _66
REMARK   29  A    between atoms: _75  and  _77
REMARK   30  A    between atoms: _77  and  _78
REMARK   31  A    between atoms: _77  and  _80
REMARK   32  A    between atoms: _80  and  _81
REMARK   33  A    between atoms: _84  and  _86
REMARK   34  A    between atoms: _86  and  _87
REMARK   35  A    between atoms: _90  and  _92
REMARK   36  A    between atoms: _92  and  _93
REMARK   37  A    between atoms: _92  and  _95
REMARK   38  A    between atoms: _95  and  _96
REMARK   39  A    between atoms: _96  and  _97
REMARK   40  A    between atoms: _97  and  _98
REMARK   41  A    between atoms: _107  and  _109
REMARK   42  A    between atoms: _109  and  _110
REMARK   43  A    between atoms: _109  and  _112
REMARK   44  A    between atoms: _112  and  _113
REMARK   45  A    between atoms: _116  and  _117
REMARK   46  A    between atoms: _122  and  _124
REMARK   47  A    between atoms: _124  and  _125
REMARK   48  A    between atoms: _124  and  _127
REMARK   49  A    between atoms: _129  and  _131
REMARK   50  A    between atoms: _131  and  _132
REMARK   51  A    between atoms: _131  and  _134
REMARK   52  A    between atoms: _134  and  _135
REMARK   53  A    between atoms: _138  and  _140
REMARK   54  A    between atoms: _140  and  _141
REMARK   55  A    between atoms: _140  and  _143
REMARK   56  A    between atoms: _143  and  _144
REMARK   57  A    between atoms: _147  and  _149
REMARK   58  A    between atoms: _149  and  _150
REMARK   59  A    between atoms: _149  and  _152
REMARK   60  A    between atoms: _152  and  _153
REMARK   61  A    between atoms: _153  and  _154
REMARK   62  A    between atoms: _154  and  _155
REMARK   63  A    between atoms: _165  and  _166
REMARK   64  A    between atoms: _171  and  _173
REMARK   65  A    between atoms: _173  and  _174
REMARK   66  A    between atoms: _173  and  _176
REMARK   67  A    between atoms: _176  and  _177
REMARK   68  A    between atoms: _179  and  _181
REMARK   69  A    between atoms: _181  and  _182
REMARK   70  A    between atoms: _181  and  _184
REMARK   71  A    between atoms: _184  and  _185
REMARK   72  A    between atoms: _191  and  _193
REMARK   73  A    between atoms: _193  and  _194
REMARK   74  A    between atoms: _193  and  _196
REMARK   75  A    between atoms: _196  and  _197
REMARK   76  A    between atoms: _200  and  _202
REMARK   77  A    between atoms: _202  and  _203
REMARK   78  A    between atoms: _202  and  _205
REMARK   79  A    between atoms: _205  and  _206
REMARK   80  A    between atoms: _206  and  _207
REMARK   81  A    between atoms: _209  and  _211
REMARK   82  A    between atoms: _211  and  _212
REMARK   83  A    between atoms: _214  and  _216
REMARK   84  A    between atoms: _216  and  _217
REMARK   85  A    between atoms: _219  and  _221
REMARK   86  A    between atoms: _221  and  _222
REMARK   87  A    between atoms: _221  and  _224
REMARK   88  A    between atoms: _224  and  _225
REMARK   89  A    between atoms: _227  and  _229
REMARK   90  A    between atoms: _229  and  _230
REMARK   91  A    between atoms: _232  and  _234
REMARK   92  A    between atoms: _234  and  _235
REMARK   93  A    between atoms: _237  and  _239
REMARK   94  A    between atoms: _239  and  _240
REMARK   95  A    between atoms: _242  and  _244
REMARK   96  A    between atoms: _244  and  _245
REMARK   97  A    between atoms: _244  and  _247
REMARK   98  A    between atoms: _247  and  _248
REMARK   99  A    between atoms: _251  and  _253
REMARK  100  A    between atoms: _253  and  _254
REMARK  101  A    between atoms: _253  and  _256
REMARK  102  A    between atoms: _256  and  _257
REMARK  103  A    between atoms: _262  and  _263
REMARK  104  A    between atoms: _265  and  _267
REMARK  105  A    between atoms: _267  and  _268
REMARK  106  A    between atoms: _267  and  _270
REMARK  107  A    between atoms: _270  and  _271
REMARK  108  A    between atoms: _274  and  _276
REMARK  109  A    between atoms: _276  and  _277
REMARK  110  A    between atoms: _276  and  _279
REMARK  111  A    between atoms: _279  and  _280
REMARK  112  A    between atoms: _283  and  _285
REMARK  113  A    between atoms: _285  and  _286
REMARK  114  A    between atoms: _285  and  _288
REMARK  115  A    between atoms: _288  and  _289
REMARK  116  A    between atoms: _292  and  _294
REMARK  117  A    between atoms: _294  and  _295
REMARK  118  A    between atoms: _294  and  _297
REMARK  119  A    between atoms: _297  and  _298
REMARK  120  A    between atoms: _298  and  _299
REMARK  121  A    between atoms: _302  and  _304
REMARK  122  A    between atoms: _304  and  _305
REMARK  123  A    between atoms: _304  and  _307
REMARK  124  A    between atoms: _307  and  _308
REMARK  125  A    between atoms: _310  and  _312
REMARK  126  A    between atoms: _312  and  _313
REMARK  127  A    between atoms: _312  and  _315
REMARK  128  A    between atoms: _315  and  _316
REMARK  129  A    between atoms: _319  and  _321
REMARK  130  A    between atoms: _321  and  _322
REMARK  131  A    between atoms: _321  and  _324
REMARK  132  A    between atoms: _324  and  _325
REMARK  133  A    between atoms: _328  and  _330
REMARK  134  A    between atoms: _330  and  _331
REMARK  135  A    between atoms: _333  and  _335
REMARK  136  A    between atoms: _335  and  _336
REMARK  137  A    between atoms: _335  and  _338
REMARK  138  A    between atoms: _338  and  _339
REMARK  139  A    between atoms: _349  and  _351
REMARK  140  A    between atoms: _351  and  _352
REMARK  141  A    between atoms: _351  and  _354
REMARK  142  A    between atoms: _354  and  _355
REMARK  143  A    between atoms: _355  and  _356
REMARK  144  A    between atoms: _356  and  _357
REMARK  145  A    between atoms: _357  and  _358
REMARK  146  A    between atoms: _362  and  _364
REMARK  147  A    between atoms: _364  and  _365
REMARK  148  A    between atoms: _364  and  _367
REMARK  149  A    between atoms: _367  and  _368
REMARK  150  A    between atoms: _368  and  _369
REMARK  151  A    between atoms: _372  and  _374
REMARK  152  A    between atoms: _374  and  _375
REMARK  153  A    between atoms: _374  and  _377
REMARK  154  A    between atoms: _377  and  _378
REMARK  155  A    between atoms: _383  and  _384
REMARK  156  A    between atoms: _386  and  _388
REMARK  157  A    between atoms: _388  and  _389
REMARK  158  A    between atoms: _388  and  _391
REMARK  159  A    between atoms: _391  and  _392
REMARK  160  A    between atoms: _392  and  _393
REMARK  161  A    between atoms: _396  and  _398
REMARK  162  A    between atoms: _398  and  _399
REMARK  163  A    between atoms: _398  and  _401
REMARK  164  A    between atoms: _401  and  _402
REMARK  165  A    between atoms: _407  and  _409
REMARK  166  A    between atoms: _409  and  _410
REMARK  167  A    between atoms: _409  and  _412
REMARK  168  A    between atoms: _412  and  _413
REMARK  169  A    between atoms: _416  and  _418
REMARK  170  A    between atoms: _418  and  _419
REMARK  171  A    between atoms: _422  and  _424
REMARK  172  A    between atoms: _424  and  _425
REMARK  173  A    between atoms: _424  and  _427
REMARK  174  A    between atoms: _427  and  _428
REMARK  175  A    between atoms: _428  and  _429
REMARK  176  A    between atoms: _431  and  _433
REMARK  177  A    between atoms: _433  and  _434
REMARK  178  A    between atoms: _436  and  _438
REMARK  179  A    between atoms: _438  and  _439
REMARK  180  A    between atoms: _438  and  _441
REMARK  181  A    between atoms: _441  and  _442
REMARK  182  A    between atoms: _445  and  _447
REMARK  183  A    between atoms: _447  and  _448
REMARK  184  A    between atoms: _447  and  _450
REMARK  185  A    between atoms: _450  and  _451
REMARK  186  A    between atoms: _456  and  _458
REMARK  187  A    between atoms: _458  and  _459
REMARK  188  A    between atoms: _458  and  _461
REMARK  189  A    between atoms: _461  and  _462
REMARK  190  A    between atoms: _465  and  _467
REMARK  191  A    between atoms: _467  and  _468
REMARK  192  A    between atoms: _470  and  _472
REMARK  193  A    between atoms: _472  and  _473
REMARK  194  A    between atoms: _472  and  _475
REMARK  195  A    between atoms: _475  and  _476
REMARK  196  A    between atoms: _479  and  _481
REMARK  197  A    between atoms: _481  and  _482
REMARK  198  A    between atoms: _481  and  _484
REMARK  199  A    between atoms: _484  and  _485
REMARK  200  A    between atoms: _487  and  _489
REMARK  201  A    between atoms: _489  and  _490
REMARK  202  A    between atoms: _489  and  _492
REMARK  203  A    between atoms: _492  and  _493
REMARK  204  A    between atoms: _498  and  _500
REMARK  205  A    between atoms: _500  and  _501
REMARK  206  A    between atoms: _500  and  _503
REMARK  207  A    between atoms: _503  and  _504
REMARK  208  A    between atoms: _504  and  _505
REMARK  209  A    between atoms: _510  and  _512
REMARK  210  A    between atoms: _512  and  _513
REMARK  211  A    between atoms: _512  and  _515
REMARK  212  A    between atoms: _515  and  _516
REMARK  213  A    between atoms: _522  and  _524
REMARK  214  A    between atoms: _524  and  _525
REMARK  215  A    between atoms: _528  and  _530
REMARK  216  A    between atoms: _530  and  _531
REMARK  217  A    between atoms: _530  and  _533
REMARK  218  A    between atoms: _533  and  _534
REMARK  219  A    between atoms: _537  and  _539
REMARK  220  A    between atoms: _539  and  _540
REMARK  221  A    between atoms: _539  and  _542
REMARK  222  A    between atoms: _545  and  _547
REMARK  223  A    between atoms: _547  and  _548
REMARK  224  A    between atoms: _547  and  _550
REMARK  225  A    between atoms: _550  and  _551
REMARK  226  A    between atoms: _554  and  _556
REMARK  227  A    between atoms: _566  and  _569
REMARK  228  A    between atoms: _569  and  _570
REMARK  229  A    between atoms: _570  and  _571
REMARK  230  A    between atoms: _575  and  _576
REMARK  231  A    between atoms: _579  and  _581
REMARK  232  A    between atoms: _585  and  _586
REMARK  233  A    between atoms: _591  and  _593
REMARK  234  A    between atoms: _593  and  _594
REMARK  235  A    between atoms: _593  and  _596
REMARK  236  A    between atoms: _596  and  _597
REMARK  237  A    between atoms: _597  and  _598
REMARK  238  A    between atoms: _598  and  _599
REMARK  239  A    between atoms: _608  and  _610
REMARK  240  A    between atoms: _610  and  _611
REMARK  241  A    between atoms: _610  and  _613
REMARK  242  A    between atoms: _616  and  _618
REMARK  243  A    between atoms: _618  and  _619
REMARK  244  A    between atoms: _618  and  _621
REMARK  245  A    between atoms: _621  and  _622
REMARK  246  A    between atoms: _624  and  _626
REMARK  247  A    between atoms: _626  and  _627
REMARK  248  A    between atoms: _626  and  _629
REMARK  249  A    between atoms: _629  and  _630
REMARK  250  A    between atoms: _630  and  _631
REMARK  251  A    between atoms: _631  and  _632
REMARK  252  A    between atoms: _641  and  _643
REMARK  253  A    between atoms: _643  and  _644
REMARK  254  A    between atoms: _643  and  _646
REMARK  255  A    between atoms: _646  and  _647
REMARK  256  A    between atoms: _649  and  _651
REMARK  257  A    between atoms: _651  and  _652
REMARK  258  A    between atoms: _651  and  _654
REMARK  259  A    between atoms: _654  and  _655
REMARK  260  A    between atoms: _658  and  _660
REMARK  261  A    between atoms: _660  and  _661
REMARK  262  A    between atoms: _660  and  _663
REMARK  263  A    between atoms: _663  and  _664
REMARK  264  A    between atoms: _667  and  _669
REMARK  265  A    between atoms: _669  and  _670
REMARK  266  A    between atoms: _669  and  _672
REMARK  267  A    between atoms: _672  and  _673
REMARK  268  A    between atoms: _673  and  _674
REMARK  269  A    between atoms: _679  and  _681
REMARK  270  A    between atoms: _681  and  _682
REMARK  271  A    between atoms: _681  and  _684
REMARK  272  A    between atoms: _684  and  _685
REMARK  273  A    between atoms: _685  and  _686
REMARK  274  A    between atoms: _688  and  _690
REMARK  275  A    between atoms: _690  and  _691
REMARK  276  A    between atoms: _690  and  _693
REMARK  277  A    between atoms: _693  and  _694
REMARK  278  A    between atoms: _694  and  _695
REMARK  279  A    between atoms: _695  and  _696
REMARK  280  A    between atoms: _696  and  _697
REMARK                            x       y       z     vdW  Elec       q    Type
REMARK                         _______ _______ _______ _____ _____    ______ ____
ROOT
ATOM      1  O   HOH     1       8.445  34.133  74.714  0.00  0.00    +0.000 OA
ENDROOT
TORSDOF 0
REMARK  Name = ../refined-set-2016/1bxr/1bxr_pocket.pdb
REMARK  280 active torsions:
REMARK  status: ('A' for Active; 'I' for Inactive)
REMARK    1  A    between atoms: _1  and  _3
REMARK    2  A    between atoms: _3  and  _4
REMARK    3  A    between atoms: _6  and  _8
REMARK    4  A    between atoms: _8  and  _9
REMARK    5  A    between atoms: _8  and  _11
REMARK    6  A    between atoms: _11  and  _12
REMARK    7  A    between atoms: _12  and  _13
REMARK    8  A    between atoms: _18  and  _20
REMARK    9  A    between atoms: _20  and  _21
REMARK   10  A    between atoms: _20  and  _23
REMARK   11  A    between atoms: _23  and  _24
REMARK   12  A    between atoms: _30  and  _32
REMARK   13  A    between atoms: _32  and  _33
REMARK   14  A    between atoms: _32  and  _35
REMARK   15  A    between atoms: _35  and  _36
REMARK   16  A    between atoms: _36  and  _37
REMARK   17  A    between atoms: _42  and  _44
REMARK   18  A    between atoms: _44  and  _45
REMARK   19  A    between atoms: _48  and  _50
REMARK   20  A    between atoms: _50  and  _51
REMARK   21  A    between atoms: _50  and  _53
REMARK   22  A    between atoms: _53  and  _54
REMARK   23  A    between atoms: _54  and  _55
REMARK   24  A    between atoms: _58  and  _60
REMARK   25  A    between atoms: _60  and  _61
REMARK   26  A    between atoms: _60  and  _63
REMARK   27  A    between atoms: _63  and  _64
REMARK   28  A    between atoms: _65  and  _66
REMARK   29  A    between atoms: _75  and  _77
REMARK   30  A    between atoms: _77  and  _78
REMARK   31  A    between atoms: _77  and  _80
REMARK   32  A    between atoms: _80  and  _81
REMARK   33  A    between atoms: _84  and  _86
REMARK   34  A    between atoms: _86  and  _87
REMARK   35  A    between atoms: _90  and  _92
REMARK   36  A    between atoms: _92  and  _93
REMARK   37  A    between atoms: _92  and  _95
REMARK   38  A    between atoms: _95  and  _96
REMARK   39  A    between atoms: _96  and  _97
REMARK   40  A    between atoms: _97  and  _98
REMARK   41  A    between atoms: _107  and  _109
REMARK   42  A    between atoms: _109  and  _110
REMARK   43  A    between atoms: _109  and  _112
REMARK   44  A    between atoms: _112  and  _113
REMARK   45  A    between atoms: _116  and  _117
REMARK   46  A    between atoms: _122  and  _124
REMARK   47  A    between atoms: _124  and  _125
REMARK   48  A    between atoms: _124  and  _127
REMARK   49  A    between atoms: _129  and  _131
REMARK   50  A    between atoms: _131  and  _132
REMARK   51  A    between atoms: _131  and  _134
REMARK   52  A    between atoms: _134  and  _135
REMARK   53  A    between atoms: _138  and  _140
REMARK   54  A    between atoms: _140  and  _141
REMARK   55  A    between atoms: _140  and  _143
REMARK   56  A    between atoms: _143  and  _144
REMARK   57  A    between atoms: _147  and  _149
REMARK   58  A    between atoms: _149  and  _150
REMARK   59  A    between atoms: _149  and  _152
REMARK   60  A    between atoms: _152  and  _153
REMARK   61  A    between atoms: _153  and  _154
REMARK   62  A    between atoms: _154  and  _155
REMARK   63  A    between atoms: _165  and  _166
REMARK   64  A    between atoms: _171  and  _173
REMARK   65  A    between atoms: _173  and  _174
REMARK   66  A    between atoms: _173  and  _176
REMARK   67  A    between atoms: _176  and  _177
REMARK   68  A    between atoms: _179  and  _181
REMARK   69  A    between atoms: _181  and  _182
REMARK   70  A    between atoms: _181  and  _184
REMARK   71  A    between atoms: _184  and  _185
REMARK   72  A    between atoms: _191  and  _193
REMARK   73  A    between atoms: _193  and  _194
REMARK   74  A    between atoms: _193  and  _196
REMARK   75  A    between atoms: _196  and  _197
REMARK   76  A    between atoms: _200  and  _202
REMARK   77  A    between atoms: _202  and  _203
REMARK   78  A    between atoms: _202  and  _205
REMARK   79  A    between atoms: _205  and  _206
REMARK   80  A    between atoms: _206  and  _207
REMARK   81  A    between atoms: _209  and  _211
REMARK   82  A    between atoms: _211  and  _212
REMARK   83  A    between atoms: _214  and  _216
REMARK   84  A    between atoms: _216  and  _217
REMARK   85  A    between atoms: _219  and  _221
REMARK   86  A    between atoms: _221  and  _222
REMARK   87  A    between atoms: _221  and  _224
REMARK   88  A    between atoms: _224  and  _225
REMARK   89  A    between atoms: _227  and  _229
REMARK   90  A    between atoms: _229  and  _230
REMARK   91  A    between atoms: _232  and  _234
REMARK   92  A    between atoms: _234  and  _235
REMARK   93  A    between atoms: _237  and  _239
REMARK   94  A    between atoms: _239  and  _240
REMARK   95  A    between atoms: _242  and  _244
REMARK   96  A    between atoms: _244  and  _245
REMARK   97  A    between atoms: _244  and  _247
REMARK   98  A    between atoms: _247  and  _248
REMARK   99  A    between atoms: _251  and  _253
REMARK  100  A    between atoms: _253  and  _254
REMARK  101  A    between atoms: _253  and  _256
REMARK  102  A    between atoms: _256  and  _257
REMARK  103  A    between atoms: _262  and  _263
REMARK  104  A    between atoms: _265  and  _267
REMARK  105  A    between atoms: _267  and  _268
REMARK  106  A    between atoms: _267  and  _270
REMARK  107  A    between atoms: _270  and  _271
REMARK  108  A    between atoms: _274  and  _276
REMARK  109  A    between atoms: _276  and  _277
REMARK  110  A    between atoms: _276  and  _279
REMARK  111  A    between atoms: _279  and  _280
REMARK  112  A    between atoms: _283  and  _285
REMARK  113  A    between atoms: _285  and  _286
REMARK  114  A    between atoms: _285  and  _288
REMARK  115  A    between atoms: _288  and  _289
REMARK  116  A    between atoms: _292  and  _294
REMARK  117  A    between atoms: _294  and  _295
REMARK  118  A    between atoms: _294  and  _297
REMARK  119  A    between atoms: _297  and  _298
REMARK  120  A    between atoms: _298  and  _299
REMARK  121  A    between atoms: _302  and  _304
REMARK  122  A    between atoms: _304  and  _305
REMARK  123  A    between atoms: _304  and  _307
REMARK  124  A    between atoms: _307  and  _308
REMARK  125  A    between atoms: _310  and  _312
REMARK  126  A    between atoms: _312  and  _313
REMARK  127  A    between atoms: _312  and  _315
REMARK  128  A    between atoms: _315  and  _316
REMARK  129  A    between atoms: _319  and  _321
REMARK  130  A    between atoms: _321  and  _322
REMARK  131  A    between atoms: _321  and  _324
REMARK  132  A    between atoms: _324  and  _325
REMARK  133  A    between atoms: _328  and  _330
REMARK  134  A    between atoms: _330  and  _331
REMARK  135  A    between atoms: _333  and  _335
REMARK  136  A    between atoms: _335  and  _336
REMARK  137  A    between atoms: _335  and  _338
REMARK  138  A    between atoms: _338  and  _339
REMARK  139  A    between atoms: _349  and  _351
REMARK  140  A    between atoms: _351  and  _352
REMARK  141  A    between atoms: _351  and  _354
REMARK  142  A    between atoms: _354  and  _355
REMARK  143  A    between atoms: _355  and  _356
REMARK  144  A    between atoms: _356  and  _357
REMARK  145  A    between atoms: _357  and  _358
REMARK  146  A    between atoms: _362  and  _364
REMARK  147  A    between atoms: _364  and  _365
REMARK  148  A    between atoms: _364  and  _367
REMARK  149  A    between atoms: _367  and  _368
REMARK  150  A    between atoms: _368  and  _369
REMARK  151  A    between atoms: _372  and  _374
REMARK  152  A    between atoms: _374  and  _375
REMARK  153  A    between atoms: _374  and  _377
REMARK  154  A    between atoms: _377  and  _378
REMARK  155  A    between atoms: _383  and  _384
REMARK  156  A    between atoms: _386  and  _388
REMARK  157  A    between atoms: _388  and  _389
REMARK  158  A    between atoms: _388  and  _391
REMARK  159  A    between atoms: _391  and  _392
REMARK  160  A    between atoms: _392  and  _393
REMARK  161  A    between atoms: _396  and  _398
REMARK  162  A    between atoms: _398  and  _399
REMARK  163  A    between atoms: _398  and  _401
REMARK  164  A    between atoms: _401  and  _402
REMARK  165  A    between atoms: _407  and  _409
REMARK  166  A    between atoms: _409  and  _410
REMARK  167  A    between atoms: _409  and  _412
REMARK  168  A    between atoms: _412  and  _413
REMARK  169  A    between atoms: _416  and  _418
REMARK  170  A    between atoms: _418  and  _419
REMARK  171  A    between atoms: _422  and  _424
REMARK  172  A    between atoms: _424  and  _425
REMARK  173  A    between atoms: _424  and  _427
REMARK  174  A    between atoms: _427  and  _428
REMARK  175  A    between atoms: _428  and  _429
REMARK  176  A    between atoms: _431  and  _433
REMARK  177  A    between atoms: _433  and  _434
REMARK  178  A    between atoms: _436  and  _438
REMARK  179  A    between atoms: _438  and  _439
REMARK  180  A    between atoms: _438  and  _441
REMARK  181  A    between atoms: _441  and  _442
REMARK  182  A    between atoms: _445  and  _447
REMARK  183  A    between atoms: _447  and  _448
REMARK  184  A    between atoms: _447  and  _450
REMARK  185  A    between atoms: _450  and  _451
REMARK  186  A    between atoms: _456  and  _458
REMARK  187  A    between atoms: _458  and  _459
REMARK  188  A    between atoms: _458  and  _461
REMARK  189  A    between atoms: _461  and  _462
REMARK  190  A    between atoms: _465  and  _467
REMARK  191  A    between atoms: _467  and  _468
REMARK  192  A    between atoms: _470  and  _472
REMARK  193  A    between atoms: _472  and  _473
REMARK  194  A    between atoms: _472  and  _475
REMARK  195  A    between atoms: _475  and  _476
REMARK  196  A    between atoms: _479  and  _481
REMARK  197  A    between atoms: _481  and  _482
REMARK  198  A    between atoms: _481  and  _484
REMARK  199  A    between atoms: _484  and  _485
REMARK  200  A    between atoms: _487  and  _489
REMARK  201  A    between atoms: _489  and  _490
REMARK  202  A    between atoms: _489  and  _492
REMARK  203  A    between atoms: _492  and  _493
REMARK  204  A    between atoms: _498  and  _500
REMARK  205  A    between atoms: _500  and  _501
REMARK  206  A    between atoms: _500  and  _503
REMARK  207  A    between atoms: _503  and  _504
REMARK  208  A    between atoms: _504  and  _505
REMARK  209  A    between atoms: _510  and  _512
REMARK  210  A    between atoms: _512  and  _513
REMARK  211  A    between atoms: _512  and  _515
REMARK  212  A    between atoms: _515  and  _516
REMARK  213  A    between atoms: _522  and  _524
REMARK  214  A    between atoms: _524  and  _525
REMARK  215  A    between atoms: _528  and  _530
REMARK  216  A    between atoms: _530  and  _531
REMARK  217  A    between atoms: _530  and  _533
REMARK  218  A    between atoms: _533  and  _534
REMARK  219  A    between atoms: _537  and  _539
REMARK  220  A    between atoms: _539  and  _540
REMARK  221  A    between atoms: _539  and  _542
REMARK  222  A    between atoms: _545  and  _547
REMARK  223  A    between atoms: _547  and  _548
REMARK  224  A    between atoms: _547  and  _550
REMARK  225  A    between atoms: _550  and  _551
REMARK  226  A    between atoms: _554  and  _556
REMARK  227  A    between atoms: _566  and  _569
REMARK  228  A    between atoms: _569  and  _570
REMARK  229  A    between atoms: _570  and  _571
REMARK  230  A    between atoms: _575  and  _576
REMARK  231  A    between atoms: _579  and  _581
REMARK  232  A    between atoms: _585  and  _586
REMARK  233  A    between atoms: _591  and  _593
REMARK  234  A    between atoms: _593  and  _594
REMARK  235  A    between atoms: _593  and  _596
REMARK  236  A    between atoms: _596  and  _597
REMARK  237  A    between atoms: _597  and  _598
REMARK  238  A    between atoms: _598  and  _599
REMARK  239  A    between atoms: _608  and  _610
REMARK  240  A    between atoms: _610  and  _611
REMARK  241  A    between atoms: _610  and  _613
REMARK  242  A    between atoms: _616  and  _618
REMARK  243  A    between atoms: _618  and  _619
REMARK  244  A    between atoms: _618  and  _621
REMARK  245  A    between atoms: _621  and  _622
REMARK  246  A    between atoms: _624  and  _626
REMARK  247  A    between atoms: _626  and  _627
REMARK  248  A    between atoms: _626  and  _629
REMARK  249  A    between atoms: _629  and  _630
REMARK  250  A    between atoms: _630  and  _631
REMARK  251  A    between atoms: _631  and  _632
REMARK  252  A    between atoms: _641  and  _643
REMARK  253  A    between atoms: _643  and  _644
REMARK  254  A    between atoms: _643  and  _646
REMARK  255  A    between atoms: _646  and  _647
REMARK  256  A    between atoms: _649  and  _651
REMARK  257  A    between atoms: _651  and  _652
REMARK  258  A    between atoms: _651  and  _654
REMARK  259  A    between atoms: _654  and  _655
REMARK  260  A    between atoms: _658  and  _660
REMARK  261  A    between atoms: _660  and  _661
REMARK  262  A    between atoms: _660  and  _663
REMARK  263  A    between atoms: _663  and  _664
REMARK  264  A    between atoms: _667  and  _669
REMARK  265  A    between atoms: _669  and  _670
REMARK  266  A    between atoms: _669  and  _672
REMARK  267  A    between atoms: _672  and  _673
REMARK  268  A    between atoms: _673  and  _674
REMARK  269  A    between atoms: _679  and  _681
REMARK  270  A    between atoms: _681  and  _682
REMARK  271  A    between atoms: _681  and  _684
REMARK  272  A    between atoms: _684  and  _685
REMARK  273  A    between atoms: _685  and  _686
REMARK  274  A    between atoms: _688  and  _690
REMARK  275  A    between atoms: _690  and  _691
REMARK  276  A    between atoms: _690  and  _693
REMARK  277  A    between atoms: _693  and  _694
REMARK  278  A    between atoms: _694  and  _695
REMARK  279  A    between atoms: _695  and  _696
REMARK  280  A    between atoms: _696  and  _697
REMARK                            x       y       z     vdW  Elec       q    Type
REMARK                         _______ _______ _______ _____ _____    ______ ____
ROOT
ATOM      1  O   HOH     1       6.806  42.225  63.628  0.00  0.00    +0.000 OA
ENDROOT
TORSDOF 0
REMARK  Name = ../refined-set-2016/1bxr/1bxr_pocket.pdb
REMARK  280 active torsions:
REMARK  status: ('A' for Active; 'I' for Inactive)
REMARK    1  A    between atoms: _1  and  _3
REMARK    2  A    between atoms: _3  and  _4
REMARK    3  A    between atoms: _6  and  _8
REMARK    4  A    between atoms: _8  and  _9
REMARK    5  A    between atoms: _8  and  _11
REMARK    6  A    between atoms: _11  and  _12
REMARK    7  A    between atoms: _12  and  _13
REMARK    8  A    between atoms: _18  and  _20
REMARK    9  A    between atoms: _20  and  _21
REMARK   10  A    between atoms: _20  and  _23
REMARK   11  A    between atoms: _23  and  _24
REMARK   12  A    between atoms: _30  and  _32
REMARK   13  A    between atoms: _32  and  _33
REMARK   14  A    between atoms: _32  and  _35
REMARK   15  A    between atoms: _35  and  _36
REMARK   16  A    between atoms: _36  and  _37
REMARK   17  A    between atoms: _42  and  _44
REMARK   18  A    between atoms: _44  and  _45
REMARK   19  A    between atoms: _48  and  _50
REMARK   20  A    between atoms: _50  and  _51
REMARK   21  A    between atoms: _50  and  _53
REMARK   22  A    between atoms: _53  and  _54
REMARK   23  A    between atoms: _54  and  _55
REMARK   24  A    between atoms: _58  and  _60
REMARK   25  A    between atoms: _60  and  _61
REMARK   26  A    between atoms: _60  and  _63
REMARK   27  A    between atoms: _63  and  _64
REMARK   28  A    between atoms: _65  and  _66
REMARK   29  A    between atoms: _75  and  _77
REMARK   30  A    between atoms: _77  and  _78
REMARK   31  A    between atoms: _77  and  _80
REMARK   32  A    between atoms: _80  and  _81
REMARK   33  A    between atoms: _84  and  _86
REMARK   34  A    between atoms: _86  and  _87
REMARK   35  A    between atoms: _90  and  _92
REMARK   36  A    between atoms: _92  and  _93
REMARK   37  A    between atoms: _92  and  _95
REMARK   38  A    between atoms: _95  and  _96
REMARK   39  A    between atoms: _96  and  _97
REMARK   40  A    between atoms: _97  and  _98
REMARK   41  A    between atoms: _107  and  _109
REMARK   42  A    between atoms: _109  and  _110
REMARK   43  A    between atoms: _109  and  _112
REMARK   44  A    between atoms: _112  and  _113
REMARK   45  A    between atoms: _116  and  _117
REMARK   46  A    between atoms: _122  and  _124
REMARK   47  A    between atoms: _124  and  _125
REMARK   48  A    between atoms: _124  and  _127
REMARK   49  A    between atoms: _129  and  _131
REMARK   50  A    between atoms: _131  and  _132
REMARK   51  A    between atoms: _131  and  _134
REMARK   52  A    between atoms: _134  and  _135
REMARK   53  A    between atoms: _138  and  _140
REMARK   54  A    between atoms: _140  and  _141
REMARK   55  A    between atoms: _140  and  _143
REMARK   56  A    between atoms: _143  and  _144
REMARK   57  A    between atoms: _147  and  _149
REMARK   58  A    between atoms: _149  and  _150
REMARK   59  A    between atoms: _149  and  _152
REMARK   60  A    between atoms: _152  and  _153
REMARK   61  A    between atoms: _153  and  _154
REMARK   62  A    between atoms: _154  and  _155
REMARK   63  A    between atoms: _165  and  _166
REMARK   64  A    between atoms: _171  and  _173
REMARK   65  A    between atoms: _173  and  _174
REMARK   66  A    between atoms: _173  and  _176
REMARK   67  A    between atoms: _176  and  _177
REMARK   68  A    between atoms: _179  and  _181
REMARK   69  A    between atoms: _181  and  _182
REMARK   70  A    between atoms: _181  and  _184
REMARK   71  A    between atoms: _184  and  _185
REMARK   72  A    between atoms: _191  and  _193
REMARK   73  A    between atoms: _193  and  _194
REMARK   74  A    between atoms: _193  and  _196
REMARK   75  A    between atoms: _196  and  _197
REMARK   76  A    between atoms: _200  and  _202
REMARK   77  A    between atoms: _202  and  _203
REMARK   78  A    between atoms: _202  and  _205
REMARK   79  A    between atoms: _205  and  _206
REMARK   80  A    between atoms: _206  and  _207
REMARK   81  A    between atoms: _209  and  _211
REMARK   82  A    between atoms: _211  and  _212
REMARK   83  A    between atoms: _214  and  _216
REMARK   84  A    between atoms: _216  and  _217
REMARK   85  A    between atoms: _219  and  _221
REMARK   86  A    between atoms: _221  and  _222
REMARK   87  A    between atoms: _221  and  _224
REMARK   88  A    between atoms: _224  and  _225
REMARK   89  A    between atoms: _227  and  _229
REMARK   90  A    between atoms: _229  and  _230
REMARK   91  A    between atoms: _232  and  _234
REMARK   92  A    between atoms: _234  and  _235
REMARK   93  A    between atoms: _237  and  _239
REMARK   94  A    between atoms: _239  and  _240
REMARK   95  A    between atoms: _242  and  _244
REMARK   96  A    between atoms: _244  and  _245
REMARK   97  A    between atoms: _244  and  _247
REMARK   98  A    between atoms: _247  and  _248
REMARK   99  A    between atoms: _251  and  _253
REMARK  100  A    between atoms: _253  and  _254
REMARK  101  A    between atoms: _253  and  _256
REMARK  102  A    between atoms: _256  and  _257
REMARK  103  A    between atoms: _262  and  _263
REMARK  104  A    between atoms: _265  and  _267
REMARK  105  A    between atoms: _267  and  _268
REMARK  106  A    between atoms: _267  and  _270
REMARK  107  A    between atoms: _270  and  _271
REMARK  108  A    between atoms: _274  and  _276
REMARK  109  A    between atoms: _276  and  _277
REMARK  110  A    between atoms: _276  and  _279
REMARK  111  A    between atoms: _279  and  _280
REMARK  112  A    between atoms: _283  and  _285
REMARK  113  A    between atoms: _285  and  _286
REMARK  114  A    between atoms: _285  and  _288
REMARK  115  A    between atoms: _288  and  _289
REMARK  116  A    between atoms: _292  and  _294
REMARK  117  A    between atoms: _294  and  _295
REMARK  118  A    between atoms: _294  and  _297
REMARK  119  A    between atoms: _297  and  _298
REMARK  120  A    between atoms: _298  and  _299
REMARK  121  A    between atoms: _302  and  _304
REMARK  122  A    between atoms: _304  and  _305
REMARK  123  A    between atoms: _304  and  _307
REMARK  124  A    between atoms: _307  and  _308
REMARK  125  A    between atoms: _310  and  _312
REMARK  126  A    between atoms: _312  and  _313
REMARK  127  A    between atoms: _312  and  _315
REMARK  128  A    between atoms: _315  and  _316
REMARK  129  A    between atoms: _319  and  _321
REMARK  130  A    between atoms: _321  and  _322
REMARK  131  A    between atoms: _321  and  _324
REMARK  132  A    between atoms: _324  and  _325
REMARK  133  A    between atoms: _328  and  _330
REMARK  134  A    between atoms: _330  and  _331
REMARK  135  A    between atoms: _333  and  _335
REMARK  136  A    between atoms: _335  and  _336
REMARK  137  A    between atoms: _335  and  _338
REMARK  138  A    between atoms: _338  and  _339
REMARK  139  A    between atoms: _349  and  _351
REMARK  140  A    between atoms: _351  and  _352
REMARK  141  A    between atoms: _351  and  _354
REMARK  142  A    between atoms: _354  and  _355
REMARK  143  A    between atoms: _355  and  _356
REMARK  144  A    between atoms: _356  and  _357
REMARK  145  A    between atoms: _357  and  _358
REMARK  146  A    between atoms: _362  and  _364
REMARK  147  A    between atoms: _364  and  _365
REMARK  148  A    between atoms: _364  and  _367
REMARK  149  A    between atoms: _367  and  _368
REMARK  150  A    between atoms: _368  and  _369
REMARK  151  A    between atoms: _372  and  _374
REMARK  152  A    between atoms: _374  and  _375
REMARK  153  A    between atoms: _374  and  _377
REMARK  154  A    between atoms: _377  and  _378
REMARK  155  A    between atoms: _383  and  _384
REMARK  156  A    between atoms: _386  and  _388
REMARK  157  A    between atoms: _388  and  _389
REMARK  158  A    between atoms: _388  and  _391
REMARK  159  A    between atoms: _391  and  _392
REMARK  160  A    between atoms: _392  and  _393
REMARK  161  A    between atoms: _396  and  _398
REMARK  162  A    between atoms: _398  and  _399
REMARK  163  A    between atoms: _398  and  _401
REMARK  164  A    between atoms: _401  and  _402
REMARK  165  A    between atoms: _407  and  _409
REMARK  166  A    between atoms: _409  and  _410
REMARK  167  A    between atoms: _409  and  _412
REMARK  168  A    between atoms: _412  and  _413
REMARK  169  A    between atoms: _416  and  _418
REMARK  170  A    between atoms: _418  and  _419
REMARK  171  A    between atoms: _422  and  _424
REMARK  172  A    between atoms: _424  and  _425
REMARK  173  A    between atoms: _424  and  _427
REMARK  174  A    between atoms: _427  and  _428
REMARK  175  A    between atoms: _428  and  _429
REMARK  176  A    between atoms: _431  and  _433
REMARK  177  A    between atoms: _433  and  _434
REMARK  178  A    between atoms: _436  and  _438
REMARK  179  A    between atoms: _438  and  _439
REMARK  180  A    between atoms: _438  and  _441
REMARK  181  A    between atoms: _441  and  _442
REMARK  182  A    between atoms: _445  and  _447
REMARK  183  A    between atoms: _447  and  _448
REMARK  184  A    between atoms: _447  and  _450
REMARK  185  A    between atoms: _450  and  _451
REMARK  186  A    between atoms: _456  and  _458
REMARK  187  A    between atoms: _458  and  _459
REMARK  188  A    between atoms: _458  and  _461
REMARK  189  A    between atoms: _461  and  _462
REMARK  190  A    between atoms: _465  and  _467
REMARK  191  A    between atoms: _467  and  _468
REMARK  192  A    between atoms: _470  and  _472
REMARK  193  A    between atoms: _472  and  _473
REMARK  194  A    between atoms: _472  and  _475
REMARK  195  A    between atoms: _475  and  _476
REMARK  196  A    between atoms: _479  and  _481
REMARK  197  A    between atoms: _481  and  _482
REMARK  198  A    between atoms: _481  and  _484
REMARK  199  A    between atoms: _484  and  _485
REMARK  200  A    between atoms: _487  and  _489
REMARK  201  A    between atoms: _489  and  _490
REMARK  202  A    between atoms: _489  and  _492
REMARK  203  A    between atoms: _492  and  _493
REMARK  204  A    between atoms: _498  and  _500
REMARK  205  A    between atoms: _500  and  _501
REMARK  206  A    between atoms: _500  and  _503
REMARK  207  A    between atoms: _503  and  _504
REMARK  208  A    between atoms: _504  and  _505
REMARK  209  A    between atoms: _510  and  _512
REMARK  210  A    between atoms: _512  and  _513
REMARK  211  A    between atoms: _512  and  _515
REMARK  212  A    between atoms: _515  and  _516
REMARK  213  A    between atoms: _522  and  _524
REMARK  214  A    between atoms: _524  and  _525
REMARK  215  A    between atoms: _528  and  _530
REMARK  216  A    between atoms: _530  and  _531
REMARK  217  A    between atoms: _530  and  _533
REMARK  218  A    between atoms: _533  and  _534
REMARK  219  A    between atoms: _537  and  _539
REMARK  220  A    between atoms: _539  and  _540
REMARK  221  A    between atoms: _539  and  _542
REMARK  222  A    between atoms: _545  and  _547
REMARK  223  A    between atoms: _547  and  _548
REMARK  224  A    between atoms: _547  and  _550
REMARK  225  A    between atoms: _550  and  _551
REMARK  226  A    between atoms: _554  and  _556
REMARK  227  A    between atoms: _566  and  _569
REMARK  228  A    between atoms: _569  and  _570
REMARK  229  A    between atoms: _570  and  _571
REMARK  230  A    between atoms: _575  and  _576
REMARK  231  A    between atoms: _579  and  _581
REMARK  232  A    between atoms: _585  and  _586
REMARK  233  A    between atoms: _591  and  _593
REMARK  234  A    between atoms: _593  and  _594
REMARK  235  A    between atoms: _593  and  _596
REMARK  236  A    between atoms: _596  and  _597
REMARK  237  A    between atoms: _597  and  _598
REMARK  238  A    between atoms: _598  and  _599
REMARK  239  A    between atoms: _608  and  _610
REMARK  240  A    between atoms: _610  and  _611
REMARK  241  A    between atoms: _610  and  _613
REMARK  242  A    between atoms: _616  and  _618
REMARK  243  A    between atoms: _618  and  _619
REMARK  244  A    between atoms: _618  and  _621
REMARK  245  A    between atoms: _621  and  _622
REMARK  246  A    between atoms: _624  and  _626
REMARK  247  A    between atoms: _626  and  _627
REMARK  248  A    between atoms: _626  and  _629
REMARK  249  A    between atoms: _629  and  _630
REMARK  250  A    between atoms: _630  and  _631
REMARK  251  A    between atoms: _631  and  _632
REMARK  252  A    between atoms: _641  and  _643
REMARK  253  A    between atoms: _643  and  _644
REMARK  254  A    between atoms: _643  and  _646
REMARK  255  A    between atoms: _646  and  _647
REMARK  256  A    between atoms: _649  and  _651
REMARK  257  A    between atoms: _651  and  _652
REMARK  258  A    between atoms: _651  and  _654
REMARK  259  A    between atoms: _654  and  _655
REMARK  260  A    between atoms: _658  and  _660
REMARK  261  A    between atoms: _660  and  _661
REMARK  262  A    between atoms: _660  and  _663
REMARK  263  A    between atoms: _663  and  _664
REMARK  264  A    between atoms: _667  and  _669
REMARK  265  A    between atoms: _669  and  _670
REMARK  266  A    between atoms: _669  and  _672
REMARK  267  A    between atoms: _672  and  _673
REMARK  268  A    between atoms: _673  and  _674
REMARK  269  A    between atoms: _679  and  _681
REMARK  270  A    between atoms: _681  and  _682
REMARK  271  A    between atoms: _681  and  _684
REMARK  272  A    between atoms: _684  and  _685
REMARK  273  A    between atoms: _685  and  _686
REMARK  274  A    between atoms: _688  and  _690
REMARK  275  A    between atoms: _690  and  _691
REMARK  276  A    between atoms: _690  and  _693
REMARK  277  A    between atoms: _693  and  _694
REMARK  278  A    between atoms: _694  and  _695
REMARK  279  A    between atoms: _695  and  _696
REMARK  280  A    between atoms: _696  and  _697
REMARK                            x       y       z     vdW  Elec       q    Type
REMARK                         _______ _______ _______ _____ _____    ______ ____
ROOT
ATOM      1  O   HOH     1      22.998  29.650  74.269  0.00  0.00    +0.000 OA
ENDROOT
TORSDOF 0
REMARK  Name = ../refined-set-2016/1bxr/1bxr_pocket.pdb
REMARK  280 active torsions:
REMARK  status: ('A' for Active; 'I' for Inactive)
REMARK    1  A    between atoms: _1  and  _3
REMARK    2  A    between atoms: _3  and  _4
REMARK    3  A    between atoms: _6  and  _8
REMARK    4  A    between atoms: _8  and  _9
REMARK    5  A    between atoms: _8  and  _11
REMARK    6  A    between atoms: _11  and  _12
REMARK    7  A    between atoms: _12  and  _13
REMARK    8  A    between atoms: _18  and  _20
REMARK    9  A    between atoms: _20  and  _21
REMARK   10  A    between atoms: _20  and  _23
REMARK   11  A    between atoms: _23  and  _24
REMARK   12  A    between atoms: _30  and  _32
REMARK   13  A    between atoms: _32  and  _33
REMARK   14  A    between atoms: _32  and  _35
REMARK   15  A    between atoms: _35  and  _36
REMARK   16  A    between atoms: _36  and  _37
REMARK   17  A    between atoms: _42  and  _44
REMARK   18  A    between atoms: _44  and  _45
REMARK   19  A    between atoms: _48  and  _50
REMARK   20  A    between atoms: _50  and  _51
REMARK   21  A    between atoms: _50  and  _53
REMARK   22  A    between atoms: _53  and  _54
REMARK   23  A    between atoms: _54  and  _55
REMARK   24  A    between atoms: _58  and  _60
REMARK   25  A    between atoms: _60  and  _61
REMARK   26  A    between atoms: _60  and  _63
REMARK   27  A    between atoms: _63  and  _64
REMARK   28  A    between atoms: _65  and  _66
REMARK   29  A    between atoms: _75  and  _77
REMARK   30  A    between atoms: _77  and  _78
REMARK   31  A    between atoms: _77  and  _80
REMARK   32  A    between atoms: _80  and  _81
REMARK   33  A    between atoms: _84  and  _86
REMARK   34  A    between atoms: _86  and  _87
REMARK   35  A    between atoms: _90  and  _92
REMARK   36  A    between atoms: _92  and  _93
REMARK   37  A    between atoms: _92  and  _95
REMARK   38  A    between atoms: _95  and  _96
REMARK   39  A    between atoms: _96  and  _97
REMARK   40  A    between atoms: _97  and  _98
REMARK   41  A    between atoms: _107  and  _109
REMARK   42  A    between atoms: _109  and  _110
REMARK   43  A    between atoms: _109  and  _112
REMARK   44  A    between atoms: _112  and  _113
REMARK   45  A    between atoms: _116  and  _117
REMARK   46  A    between atoms: _122  and  _124
REMARK   47  A    between atoms: _124  and  _125
REMARK   48  A    between atoms: _124  and  _127
REMARK   49  A    between atoms: _129  and  _131
REMARK   50  A    between atoms: _131  and  _132
REMARK   51  A    between atoms: _131  and  _134
REMARK   52  A    between atoms: _134  and  _135
REMARK   53  A    between atoms: _138  and  _140
REMARK   54  A    between atoms: _140  and  _141
REMARK   55  A    between atoms: _140  and  _143
REMARK   56  A    between atoms: _143  and  _144
REMARK   57  A    between atoms: _147  and  _149
REMARK   58  A    between atoms: _149  and  _150
REMARK   59  A    between atoms: _149  and  _152
REMARK   60  A    between atoms: _152  and  _153
REMARK   61  A    between atoms: _153  and  _154
REMARK   62  A    between atoms: _154  and  _155
REMARK   63  A    between atoms: _165  and  _166
REMARK   64  A    between atoms: _171  and  _173
REMARK   65  A    between atoms: _173  and  _174
REMARK   66  A    between atoms: _173  and  _176
REMARK   67  A    between atoms: _176  and  _177
REMARK   68  A    between atoms: _179  and  _181
REMARK   69  A    between atoms: _181  and  _182
REMARK   70  A    between atoms: _181  and  _184
REMARK   71  A    between atoms: _184  and  _185
REMARK   72  A    between atoms: _191  and  _193
REMARK   73  A    between atoms: _193  and  _194
REMARK   74  A    between atoms: _193  and  _196
REMARK   75  A    between atoms: _196  and  _197
REMARK   76  A    between atoms: _200  and  _202
REMARK   77  A    between atoms: _202  and  _203
REMARK   78  A    between atoms: _202  and  _205
REMARK   79  A    between atoms: _205  and  _206
REMARK   80  A    between atoms: _206  and  _207
REMARK   81  A    between atoms: _209  and  _211
REMARK   82  A    between atoms: _211  and  _212
REMARK   83  A    between atoms: _214  and  _216
REMARK   84  A    between atoms: _216  and  _217
REMARK   85  A    between atoms: _219  and  _221
REMARK   86  A    between atoms: _221  and  _222
REMARK   87  A    between atoms: _221  and  _224
REMARK   88  A    between atoms: _224  and  _225
REMARK   89  A    between atoms: _227  and  _229
REMARK   90  A    between atoms: _229  and  _230
REMARK   91  A    between atoms: _232  and  _234
REMARK   92  A    between atoms: _234  and  _235
REMARK   93  A    between atoms: _237  and  _239
REMARK   94  A    between atoms: _239  and  _240
REMARK   95  A    between atoms: _242  and  _244
REMARK   96  A    between atoms: _244  and  _245
REMARK   97  A    between atoms: _244  and  _247
REMARK   98  A    between atoms: _247  and  _248
REMARK   99  A    between atoms: _251  and  _253
REMARK  100  A    between atoms: _253  and  _254
REMARK  101  A    between atoms: _253  and  _256
REMARK  102  A    between atoms: _256  and  _257
REMARK  103  A    between atoms: _262  and  _263
REMARK  104  A    between atoms: _265  and  _267
REMARK  105  A    between atoms: _267  and  _268
REMARK  106  A    between atoms: _267  and  _270
REMARK  107  A    between atoms: _270  and  _271
REMARK  108  A    between atoms: _274  and  _276
REMARK  109  A    between atoms: _276  and  _277
REMARK  110  A    between atoms: _276  and  _279
REMARK  111  A    between atoms: _279  and  _280
REMARK  112  A    between atoms: _283  and  _285
REMARK  113  A    between atoms: _285  and  _286
REMARK  114  A    between atoms: _285  and  _288
REMARK  115  A    between atoms: _288  and  _289
REMARK  116  A    between atoms: _292  and  _294
REMARK  117  A    between atoms: _294  and  _295
REMARK  118  A    between atoms: _294  and  _297
REMARK  119  A    between atoms: _297  and  _298
REMARK  120  A    between atoms: _298  and  _299
REMARK  121  A    between atoms: _302  and  _304
REMARK  122  A    between atoms: _304  and  _305
REMARK  123  A    between atoms: _304  and  _307
REMARK  124  A    between atoms: _307  and  _308
REMARK  125  A    between atoms: _310  and  _312
REMARK  126  A    between atoms: _312  and  _313
REMARK  127  A    between atoms: _312  and  _315
REMARK  128  A    between atoms: _315  and  _316
REMARK  129  A    between atoms: _319  and  _321
REMARK  130  A    between atoms: _321  and  _322
REMARK  131  A    between atoms: _321  and  _324
REMARK  132  A    between atoms: _324  and  _325
REMARK  133  A    between atoms: _328  and  _330
REMARK  134  A    between atoms: _330  and  _331
REMARK  135  A    between atoms: _333  and  _335
REMARK  136  A    between atoms: _335  and  _336
REMARK  137  A    between atoms: _335  and  _338
REMARK  138  A    between atoms: _338  and  _339
REMARK  139  A    between atoms: _349  and  _351
REMARK  140  A    between atoms: _351  and  _352
REMARK  141  A    between atoms: _351  and  _354
REMARK  142  A    between atoms: _354  and  _355
REMARK  143  A    between atoms: _355  and  _356
REMARK  144  A    between atoms: _356  and  _357
REMARK  145  A    between atoms: _357  and  _358
REMARK  146  A    between atoms: _362  and  _364
REMARK  147  A    between atoms: _364  and  _365
REMARK  148  A    between atoms: _364  and  _367
REMARK  149  A    between atoms: _367  and  _368
REMARK  150  A    between atoms: _368  and  _369
REMARK  151  A    between atoms: _372  and  _374
REMARK  152  A    between atoms: _374  and  _375
REMARK  153  A    between atoms: _374  and  _377
REMARK  154  A    between atoms: _377  and  _378
REMARK  155  A    between atoms: _383  and  _384
REMARK  156  A    between atoms: _386  and  _388
REMARK  157  A    between atoms: _388  and  _389
REMARK  158  A    between atoms: _388  and  _391
REMARK  159  A    between atoms: _391  and  _392
REMARK  160  A    between atoms: _392  and  _393
REMARK  161  A    between atoms: _396  and  _398
REMARK  162  A    between atoms: _398  and  _399
REMARK  163  A    between atoms: _398  and  _401
REMARK  164  A    between atoms: _401  and  _402
REMARK  165  A    between atoms: _407  and  _409
REMARK  166  A    between atoms: _409  and  _410
REMARK  167  A    between atoms: _409  and  _412
REMARK  168  A    between atoms: _412  and  _413
REMARK  169  A    between atoms: _416  and  _418
REMARK  170  A    between atoms: _418  and  _419
REMARK  171  A    between atoms: _422  and  _424
REMARK  172  A    between atoms: _424  and  _425
REMARK  173  A    between atoms: _424  and  _427
REMARK  174  A    between atoms: _427  and  _428
REMARK  175  A    between atoms: _428  and  _429
REMARK  176  A    between atoms: _431  and  _433
REMARK  177  A    between atoms: _433  and  _434
REMARK  178  A    between atoms: _436  and  _438
REMARK  179  A    between atoms: _438  and  _439
REMARK  180  A    between atoms: _438  and  _441
REMARK  181  A    between atoms: _441  and  _442
REMARK  182  A    between atoms: _445  and  _447
REMARK  183  A    between atoms: _447  and  _448
REMARK  184  A    between atoms: _447  and  _450
REMARK  185  A    between atoms: _450  and  _451
REMARK  186  A    between atoms: _456  and  _458
REMARK  187  A    between atoms: _458  and  _459
REMARK  188  A    between atoms: _458  and  _461
REMARK  189  A    between atoms: _461  and  _462
REMARK  190  A    between atoms: _465  and  _467
REMARK  191  A    between atoms: _467  and  _468
REMARK  192  A    between atoms: _470  and  _472
REMARK  193  A    between atoms: _472  and  _473
REMARK  194  A    between atoms: _472  and  _475
REMARK  195  A    between atoms: _475  and  _476
REMARK  196  A    between atoms: _479  and  _481
REMARK  197  A    between atoms: _481  and  _482
REMARK  198  A    between atoms: _481  and  _484
REMARK  199  A    between atoms: _484  and  _485
REMARK  200  A    between atoms: _487  and  _489
REMARK  201  A    between atoms: _489  and  _490
REMARK  202  A    between atoms: _489  and  _492
REMARK  203  A    between atoms: _492  and  _493
REMARK  204  A    between atoms: _498  and  _500
REMARK  205  A    between atoms: _500  and  _501
REMARK  206  A    between atoms: _500  and  _503
REMARK  207  A    between atoms: _503  and  _504
REMARK  208  A    between atoms: _504  and  _505
REMARK  209  A    between atoms: _510  and  _512
REMARK  210  A    between atoms: _512  and  _513
REMARK  211  A    between atoms: _512  and  _515
REMARK  212  A    between atoms: _515  and  _516
REMARK  213  A    between atoms: _522  and  _524
REMARK  214  A    between atoms: _524  and  _525
REMARK  215  A    between atoms: _528  and  _530
REMARK  216  A    between atoms: _530  and  _531
REMARK  217  A    between atoms: _530  and  _533
REMARK  218  A    between atoms: _533  and  _534
REMARK  219  A    between atoms: _537  and  _539
REMARK  220  A    between atoms: _539  and  _540
REMARK  221  A    between atoms: _539  and  _542
REMARK  222  A    between atoms: _545  and  _547
REMARK  223  A    between atoms: _547  and  _548
REMARK  224  A    between atoms: _547  and  _550
REMARK  225  A    between atoms: _550  and  _551
REMARK  226  A    between atoms: _554  and  _556
REMARK  227  A    between atoms: _566  and  _569
REMARK  228  A    between atoms: _569  and  _570
REMARK  229  A    between atoms: _570  and  _571
REMARK  230  A    between atoms: _575  and  _576
REMARK  231  A    between atoms: _579  and  _581
REMARK  232  A    between atoms: _585  and  _586
REMARK  233  A    between atoms: _591  and  _593
REMARK  234  A    between atoms: _593  and  _594
REMARK  235  A    between atoms: _593  and  _596
REMARK  236  A    between atoms: _596  and  _597
REMARK  237  A    between atoms: _597  and  _598
REMARK  238  A    between atoms: _598  and  _599
REMARK  239  A    between atoms: _608  and  _610
REMARK  240  A    between atoms: _610  and  _611
REMARK  241  A    between atoms: _610  and  _613
REMARK  242  A    between atoms: _616  and  _618
REMARK  243  A    between atoms: _618  and  _619
REMARK  244  A    between atoms: _618  and  _621
REMARK  245  A    between atoms: _621  and  _622
REMARK  246  A    between atoms: _624  and  _626
REMARK  247  A    between atoms: _626  and  _627
REMARK  248  A    between atoms: _626  and  _629
REMARK  249  A    between atoms: _629  and  _630
REMARK  250  A    between atoms: _630  and  _631
REMARK  251  A    between atoms: _631  and  _632
REMARK  252  A    between atoms: _641  and  _643
REMARK  253  A    between atoms: _643  and  _644
REMARK  254  A    between atoms: _643  and  _646
REMARK  255  A    between atoms: _646  and  _647
REMARK  256  A    between atoms: _649  and  _651
REMARK  257  A    between atoms: _651  and  _652
REMARK  258  A    between atoms: _651  and  _654
REMARK  259  A    between atoms: _654  and  _655
REMARK  260  A    between atoms: _658  and  _660
REMARK  261  A    between atoms: _660  and  _661
REMARK  262  A    between atoms: _660  and  _663
REMARK  263  A    between atoms: _663  and  _664
REMARK  264  A    between atoms: _667  and  _669
REMARK  265  A    between atoms: _669  and  _670
REMARK  266  A    between atoms: _669  and  _672
REMARK  267  A    between atoms: _672  and  _673
REMARK  268  A    between atoms: _673  and  _674
REMARK  269  A    between atoms: _679  and  _681
REMARK  270  A    between atoms: _681  and  _682
REMARK  271  A    between atoms: _681  and  _684
REMARK  272  A    between atoms: _684  and  _685
REMARK  273  A    between atoms: _685  and  _686
REMARK  274  A    between atoms: _688  and  _690
REMARK  275  A    between atoms: _690  and  _691
REMARK  276  A    between atoms: _690  and  _693
REMARK  277  A    between atoms: _693  and  _694
REMARK  278  A    between atoms: _694  and  _695
REMARK  279  A    between atoms: _695  and  _696
REMARK  280  A    between atoms: _696  and  _697
REMARK                            x       y       z     vdW  Elec       q    Type
REMARK                         _______ _______ _______ _____ _____    ______ ____
ROOT
ATOM      1  O   HOH     1      15.139  39.126  61.589  0.00  0.00    +0.000 OA
ENDROOT
TORSDOF 0
REMARK  Name = ../refined-set-2016/1bxr/1bxr_pocket.pdb
REMARK  280 active torsions:
REMARK  status: ('A' for Active; 'I' for Inactive)
REMARK    1  A    between atoms: _1  and  _3
REMARK    2  A    between atoms: _3  and  _4
REMARK    3  A    between atoms: _6  and  _8
REMARK    4  A    between atoms: _8  and  _9
REMARK    5  A    between atoms: _8  and  _11
REMARK    6  A    between atoms: _11  and  _12
REMARK    7  A    between atoms: _12  and  _13
REMARK    8  A    between atoms: _18  and  _20
REMARK    9  A    between atoms: _20  and  _21
REMARK   10  A    between atoms: _20  and  _23
REMARK   11  A    between atoms: _23  and  _24
REMARK   12  A    between atoms: _30  and  _32
REMARK   13  A    between atoms: _32  and  _33
REMARK   14  A    between atoms: _32  and  _35
REMARK   15  A    between atoms: _35  and  _36
REMARK   16  A    between atoms: _36  and  _37
REMARK   17  A    between atoms: _42  and  _44
REMARK   18  A    between atoms: _44  and  _45
REMARK   19  A    between atoms: _48  and  _50
REMARK   20  A    between atoms: _50  and  _51
REMARK   21  A    between atoms: _50  and  _53
REMARK   22  A    between atoms: _53  and  _54
REMARK   23  A    between atoms: _54  and  _55
REMARK   24  A    between atoms: _58  and  _60
REMARK   25  A    between atoms: _60  and  _61
REMARK   26  A    between atoms: _60  and  _63
REMARK   27  A    between atoms: _63  and  _64
REMARK   28  A    between atoms: _65  and  _66
REMARK   29  A    between atoms: _75  and  _77
REMARK   30  A    between atoms: _77  and  _78
REMARK   31  A    between atoms: _77  and  _80
REMARK   32  A    between atoms: _80  and  _81
REMARK   33  A    between atoms: _84  and  _86
REMARK   34  A    between atoms: _86  and  _87
REMARK   35  A    between atoms: _90  and  _92
REMARK   36  A    between atoms: _92  and  _93
REMARK   37  A    between atoms: _92  and  _95
REMARK   38  A    between atoms: _95  and  _96
REMARK   39  A    between atoms: _96  and  _97
REMARK   40  A    between atoms: _97  and  _98
REMARK   41  A    between atoms: _107  and  _109
REMARK   42  A    between atoms: _109  and  _110
REMARK   43  A    between atoms: _109  and  _112
REMARK   44  A    between atoms: _112  and  _113
REMARK   45  A    between atoms: _116  and  _117
REMARK   46  A    between atoms: _122  and  _124
REMARK   47  A    between atoms: _124  and  _125
REMARK   48  A    between atoms: _124  and  _127
REMARK   49  A    between atoms: _129  and  _131
REMARK   50  A    between atoms: _131  and  _132
REMARK   51  A    between atoms: _131  and  _134
REMARK   52  A    between atoms: _134  and  _135
REMARK   53  A    between atoms: _138  and  _140
REMARK   54  A    between atoms: _140  and  _141
REMARK   55  A    between atoms: _140  and  _143
REMARK   56  A    between atoms: _143  and  _144
REMARK   57  A    between atoms: _147  and  _149
REMARK   58  A    between atoms: _149  and  _150
REMARK   59  A    between atoms: _149  and  _152
REMARK   60  A    between atoms: _152  and  _153
REMARK   61  A    between atoms: _153  and  _154
REMARK   62  A    between atoms: _154  and  _155
REMARK   63  A    between atoms: _165  and  _166
REMARK   64  A    between atoms: _171  and  _173
REMARK   65  A    between atoms: _173  and  _174
REMARK   66  A    between atoms: _173  and  _176
REMARK   67  A    between atoms: _176  and  _177
REMARK   68  A    between atoms: _179  and  _181
REMARK   69  A    between atoms: _181  and  _182
REMARK   70  A    between atoms: _181  and  _184
REMARK   71  A    between atoms: _184  and  _185
REMARK   72  A    between atoms: _191  and  _193
REMARK   73  A    between atoms: _193  and  _194
REMARK   74  A    between atoms: _193  and  _196
REMARK   75  A    between atoms: _196  and  _197
REMARK   76  A    between atoms: _200  and  _202
REMARK   77  A    between atoms: _202  and  _203
REMARK   78  A    between atoms: _202  and  _205
REMARK   79  A    between atoms: _205  and  _206
REMARK   80  A    between atoms: _206  and  _207
REMARK   81  A    between atoms: _209  and  _211
REMARK   82  A    between atoms: _211  and  _212
REMARK   83  A    between atoms: _214  and  _216
REMARK   84  A    between atoms: _216  and  _217
REMARK   85  A    between atoms: _219  and  _221
REMARK   86  A    between atoms: _221  and  _222
REMARK   87  A    between atoms: _221  and  _224
REMARK   88  A    between atoms: _224  and  _225
REMARK   89  A    between atoms: _227  and  _229
REMARK   90  A    between atoms: _229  and  _230
REMARK   91  A    between atoms: _232  and  _234
REMARK   92  A    between atoms: _234  and  _235
REMARK   93  A    between atoms: _237  and  _239
REMARK   94  A    between atoms: _239  and  _240
REMARK   95  A    between atoms: _242  and  _244
REMARK   96  A    between atoms: _244  and  _245
REMARK   97  A    between atoms: _244  and  _247
REMARK   98  A    between atoms: _247  and  _248
REMARK   99  A    between atoms: _251  and  _253
REMARK  100  A    between atoms: _253  and  _254
REMARK  101  A    between atoms: _253  and  _256
REMARK  102  A    between atoms: _256  and  _257
REMARK  103  A    between atoms: _262  and  _263
REMARK  104  A    between atoms: _265  and  _267
REMARK  105  A    between atoms: _267  and  _268
REMARK  106  A    between atoms: _267  and  _270
REMARK  107  A    between atoms: _270  and  _271
REMARK  108  A    between atoms: _274  and  _276
REMARK  109  A    between atoms: _276  and  _277
REMARK  110  A    between atoms: _276  and  _279
REMARK  111  A    between atoms: _279  and  _280
REMARK  112  A    between atoms: _283  and  _285
REMARK  113  A    between atoms: _285  and  _286
REMARK  114  A    between atoms: _285  and  _288
REMARK  115  A    between atoms: _288  and  _289
REMARK  116  A    between atoms: _292  and  _294
REMARK  117  A    between atoms: _294  and  _295
REMARK  118  A    between atoms: _294  and  _297
REMARK  119  A    between atoms: _297  and  _298
REMARK  120  A    between atoms: _298  and  _299
REMARK  121  A    between atoms: _302  and  _304
REMARK  122  A    between atoms: _304  and  _305
REMARK  123  A    between atoms: _304  and  _307
REMARK  124  A    between atoms: _307  and  _308
REMARK  125  A    between atoms: _310  and  _312
REMARK  126  A    between atoms: _312  and  _313
REMARK  127  A    between atoms: _312  and  _315
REMARK  128  A    between atoms: _315  and  _316
REMARK  129  A    between atoms: _319  and  _321
REMARK  130  A    between atoms: _321  and  _322
REMARK  131  A    between atoms: _321  and  _324
REMARK  132  A    between atoms: _324  and  _325
REMARK  133  A    between atoms: _328  and  _330
REMARK  134  A    between atoms: _330  and  _331
REMARK  135  A    between atoms: _333  and  _335
REMARK  136  A    between atoms: _335  and  _336
REMARK  137  A    between atoms: _335  and  _338
REMARK  138  A    between atoms: _338  and  _339
REMARK  139  A    between atoms: _349  and  _351
REMARK  140  A    between atoms: _351  and  _352
REMARK  141  A    between atoms: _351  and  _354
REMARK  142  A    between atoms: _354  and  _355
REMARK  143  A    between atoms: _355  and  _356
REMARK  144  A    between atoms: _356  and  _357
REMARK  145  A    between atoms: _357  and  _358
REMARK  146  A    between atoms: _362  and  _364
REMARK  147  A    between atoms: _364  and  _365
REMARK  148  A    between atoms: _364  and  _367
REMARK  149  A    between atoms: _367  and  _368
REMARK  150  A    between atoms: _368  and  _369
REMARK  151  A    between atoms: _372  and  _374
REMARK  152  A    between atoms: _374  and  _375
REMARK  153  A    between atoms: _374  and  _377
REMARK  154  A    between atoms: _377  and  _378
REMARK  155  A    between atoms: _383  and  _384
REMARK  156  A    between atoms: _386  and  _388
REMARK  157  A    between atoms: _388  and  _389
REMARK  158  A    between atoms: _388  and  _391
REMARK  159  A    between atoms: _391  and  _392
REMARK  160  A    between atoms: _392  and  _393
REMARK  161  A    between atoms: _396  and  _398
REMARK  162  A    between atoms: _398  and  _399
REMARK  163  A    between atoms: _398  and  _401
REMARK  164  A    between atoms: _401  and  _402
REMARK  165  A    between atoms: _407  and  _409
REMARK  166  A    between atoms: _409  and  _410
REMARK  167  A    between atoms: _409  and  _412
REMARK  168  A    between atoms: _412  and  _413
REMARK  169  A    between atoms: _416  and  _418
REMARK  170  A    between atoms: _418  and  _419
REMARK  171  A    between atoms: _422  and  _424
REMARK  172  A    between atoms: _424  and  _425
REMARK  173  A    between atoms: _424  and  _427
REMARK  174  A    between atoms: _427  and  _428
REMARK  175  A    between atoms: _428  and  _429
REMARK  176  A    between atoms: _431  and  _433
REMARK  177  A    between atoms: _433  and  _434
REMARK  178  A    between atoms: _436  and  _438
REMARK  179  A    between atoms: _438  and  _439
REMARK  180  A    between atoms: _438  and  _441
REMARK  181  A    between atoms: _441  and  _442
REMARK  182  A    between atoms: _445  and  _447
REMARK  183  A    between atoms: _447  and  _448
REMARK  184  A    between atoms: _447  and  _450
REMARK  185  A    between atoms: _450  and  _451
REMARK  186  A    between atoms: _456  and  _458
REMARK  187  A    between atoms: _458  and  _459
REMARK  188  A    between atoms: _458  and  _461
REMARK  189  A    between atoms: _461  and  _462
REMARK  190  A    between atoms: _465  and  _467
REMARK  191  A    between atoms: _467  and  _468
REMARK  192  A    between atoms: _470  and  _472
REMARK  193  A    between atoms: _472  and  _473
REMARK  194  A    between atoms: _472  and  _475
REMARK  195  A    between atoms: _475  and  _476
REMARK  196  A    between atoms: _479  and  _481
REMARK  197  A    between atoms: _481  and  _482
REMARK  198  A    between atoms: _481  and  _484
REMARK  199  A    between atoms: _484  and  _485
REMARK  200  A    between atoms: _487  and  _489
REMARK  201  A    between atoms: _489  and  _490
REMARK  202  A    between atoms: _489  and  _492
REMARK  203  A    between atoms: _492  and  _493
REMARK  204  A    between atoms: _498  and  _500
REMARK  205  A    between atoms: _500  and  _501
REMARK  206  A    between atoms: _500  and  _503
REMARK  207  A    between atoms: _503  and  _504
REMARK  208  A    between atoms: _504  and  _505
REMARK  209  A    between atoms: _510  and  _512
REMARK  210  A    between atoms: _512  and  _513
REMARK  211  A    between atoms: _512  and  _515
REMARK  212  A    between atoms: _515  and  _516
REMARK  213  A    between atoms: _522  and  _524
REMARK  214  A    between atoms: _524  and  _525
REMARK  215  A    between atoms: _528  and  _530
REMARK  216  A    between atoms: _530  and  _531
REMARK  217  A    between atoms: _530  and  _533
REMARK  218  A    between atoms: _533  and  _534
REMARK  219  A    between atoms: _537  and  _539
REMARK  220  A    between atoms: _539  and  _540
REMARK  221  A    between atoms: _539  and  _542
REMARK  222  A    between atoms: _545  and  _547
REMARK  223  A    between atoms: _547  and  _548
REMARK  224  A    between atoms: _547  and  _550
REMARK  225  A    between atoms: _550  and  _551
REMARK  226  A    between atoms: _554  and  _556
REMARK  227  A    between atoms: _566  and  _569
REMARK  228  A    between atoms: _569  and  _570
REMARK  229  A    between atoms: _570  and  _571
REMARK  230  A    between atoms: _575  and  _576
REMARK  231  A    between atoms: _579  and  _581
REMARK  232  A    between atoms: _585  and  _586
REMARK  233  A    between atoms: _591  and  _593
REMARK  234  A    between atoms: _593  and  _594
REMARK  235  A    between atoms: _593  and  _596
REMARK  236  A    between atoms: _596  and  _597
REMARK  237  A    between atoms: _597  and  _598
REMARK  238  A    between atoms: _598  and  _599
REMARK  239  A    between atoms: _608  and  _610
REMARK  240  A    between atoms: _610  and  _611
REMARK  241  A    between atoms: _610  and  _613
REMARK  242  A    between atoms: _616  and  _618
REMARK  243  A    between atoms: _618  and  _619
REMARK  244  A    between atoms: _618  and  _621
REMARK  245  A    between atoms: _621  and  _622
REMARK  246  A    between atoms: _624  and  _626
REMARK  247  A    between atoms: _626  and  _627
REMARK  248  A    between atoms: _626  and  _629
REMARK  249  A    between atoms: _629  and  _630
REMARK  250  A    between atoms: _630  and  _631
REMARK  251  A    between atoms: _631  and  _632
REMARK  252  A    between atoms: _641  and  _643
REMARK  253  A    between atoms: _643  and  _644
REMARK  254  A    between atoms: _643  and  _646
REMARK  255  A    between atoms: _646  and  _647
REMARK  256  A    between atoms: _649  and  _651
REMARK  257  A    between atoms: _651  and  _652
REMARK  258  A    between atoms: _651  and  _654
REMARK  259  A    between atoms: _654  and  _655
REMARK  260  A    between atoms: _658  and  _660
REMARK  261  A    between atoms: _660  and  _661
REMARK  262  A    between atoms: _660  and  _663
REMARK  263  A    between atoms: _663  and  _664
REMARK  264  A    between atoms: _667  and  _669
REMARK  265  A    between atoms: _669  and  _670
REMARK  266  A    between atoms: _669  and  _672
REMARK  267  A    between atoms: _672  and  _673
REMARK  268  A    between atoms: _673  and  _674
REMARK  269  A    between atoms: _679  and  _681
REMARK  270  A    between atoms: _681  and  _682
REMARK  271  A    between atoms: _681  and  _684
REMARK  272  A    between atoms: _684  and  _685
REMARK  273  A    between atoms: _685  and  _686
REMARK  274  A    between atoms: _688  and  _690
REMARK  275  A    between atoms: _690  and  _691
REMARK  276  A    between atoms: _690  and  _693
REMARK  277  A    between atoms: _693  and  _694
REMARK  278  A    between atoms: _694  and  _695
REMARK  279  A    between atoms: _695  and  _696
REMARK  280  A    between atoms: _696  and  _697
REMARK                            x       y       z     vdW  Elec       q    Type
REMARK                         _______ _______ _______ _____ _____    ______ ____
ROOT
ATOM      1  O   HOH     1      15.191  41.813  61.623  0.00  0.00    +0.000 OA
ENDROOT
TORSDOF 0
REMARK  Name = ../refined-set-2016/1bxr/1bxr_pocket.pdb
REMARK  280 active torsions:
REMARK  status: ('A' for Active; 'I' for Inactive)
REMARK    1  A    between atoms: _1  and  _3
REMARK    2  A    between atoms: _3  and  _4
REMARK    3  A    between atoms: _6  and  _8
REMARK    4  A    between atoms: _8  and  _9
REMARK    5  A    between atoms: _8  and  _11
REMARK    6  A    between atoms: _11  and  _12
REMARK    7  A    between atoms: _12  and  _13
REMARK    8  A    between atoms: _18  and  _20
REMARK    9  A    between atoms: _20  and  _21
REMARK   10  A    between atoms: _20  and  _23
REMARK   11  A    between atoms: _23  and  _24
REMARK   12  A    between atoms: _30  and  _32
REMARK   13  A    between atoms: _32  and  _33
REMARK   14  A    between atoms: _32  and  _35
REMARK   15  A    between atoms: _35  and  _36
REMARK   16  A    between atoms: _36  and  _37
REMARK   17  A    between atoms: _42  and  _44
REMARK   18  A    between atoms: _44  and  _45
REMARK   19  A    between atoms: _48  and  _50
REMARK   20  A    between atoms: _50  and  _51
REMARK   21  A    between atoms: _50  and  _53
REMARK   22  A    between atoms: _53  and  _54
REMARK   23  A    between atoms: _54  and  _55
REMARK   24  A    between atoms: _58  and  _60
REMARK   25  A    between atoms: _60  and  _61
REMARK   26  A    between atoms: _60  and  _63
REMARK   27  A    between atoms: _63  and  _64
REMARK   28  A    between atoms: _65  and  _66
REMARK   29  A    between atoms: _75  and  _77
REMARK   30  A    between atoms: _77  and  _78
REMARK   31  A    between atoms: _77  and  _80
REMARK   32  A    between atoms: _80  and  _81
REMARK   33  A    between atoms: _84  and  _86
REMARK   34  A    between atoms: _86  and  _87
REMARK   35  A    between atoms: _90  and  _92
REMARK   36  A    between atoms: _92  and  _93
REMARK   37  A    between atoms: _92  and  _95
REMARK   38  A    between atoms: _95  and  _96
REMARK   39  A    between atoms: _96  and  _97
REMARK   40  A    between atoms: _97  and  _98
REMARK   41  A    between atoms: _107  and  _109
REMARK   42  A    between atoms: _109  and  _110
REMARK   43  A    between atoms: _109  and  _112
REMARK   44  A    between atoms: _112  and  _113
REMARK   45  A    between atoms: _116  and  _117
REMARK   46  A    between atoms: _122  and  _124
REMARK   47  A    between atoms: _124  and  _125
REMARK   48  A    between atoms: _124  and  _127
REMARK   49  A    between atoms: _129  and  _131
REMARK   50  A    between atoms: _131  and  _132
REMARK   51  A    between atoms: _131  and  _134
REMARK   52  A    between atoms: _134  and  _135
REMARK   53  A    between atoms: _138  and  _140
REMARK   54  A    between atoms: _140  and  _141
REMARK   55  A    between atoms: _140  and  _143
REMARK   56  A    between atoms: _143  and  _144
REMARK   57  A    between atoms: _147  and  _149
REMARK   58  A    between atoms: _149  and  _150
REMARK   59  A    between atoms: _149  and  _152
REMARK   60  A    between atoms: _152  and  _153
REMARK   61  A    between atoms: _153  and  _154
REMARK   62  A    between atoms: _154  and  _155
REMARK   63  A    between atoms: _165  and  _166
REMARK   64  A    between atoms: _171  and  _173
REMARK   65  A    between atoms: _173  and  _174
REMARK   66  A    between atoms: _173  and  _176
REMARK   67  A    between atoms: _176  and  _177
REMARK   68  A    between atoms: _179  and  _181
REMARK   69  A    between atoms: _181  and  _182
REMARK   70  A    between atoms: _181  and  _184
REMARK   71  A    between atoms: _184  and  _185
REMARK   72  A    between atoms: _191  and  _193
REMARK   73  A    between atoms: _193  and  _194
REMARK   74  A    between atoms: _193  and  _196
REMARK   75  A    between atoms: _196  and  _197
REMARK   76  A    between atoms: _200  and  _202
REMARK   77  A    between atoms: _202  and  _203
REMARK   78  A    between atoms: _202  and  _205
REMARK   79  A    between atoms: _205  and  _206
REMARK   80  A    between atoms: _206  and  _207
REMARK   81  A    between atoms: _209  and  _211
REMARK   82  A    between atoms: _211  and  _212
REMARK   83  A    between atoms: _214  and  _216
REMARK   84  A    between atoms: _216  and  _217
REMARK   85  A    between atoms: _219  and  _221
REMARK   86  A    between atoms: _221  and  _222
REMARK   87  A    between atoms: _221  and  _224
REMARK   88  A    between atoms: _224  and  _225
REMARK   89  A    between atoms: _227  and  _229
REMARK   90  A    between atoms: _229  and  _230
REMARK   91  A    between atoms: _232  and  _234
REMARK   92  A    between atoms: _234  and  _235
REMARK   93  A    between atoms: _237  and  _239
REMARK   94  A    between atoms: _239  and  _240
REMARK   95  A    between atoms: _242  and  _244
REMARK   96  A    between atoms: _244  and  _245
REMARK   97  A    between atoms: _244  and  _247
REMARK   98  A    between atoms: _247  and  _248
REMARK   99  A    between atoms: _251  and  _253
REMARK  100  A    between atoms: _253  and  _254
REMARK  101  A    between atoms: _253  and  _256
REMARK  102  A    between atoms: _256  and  _257
REMARK  103  A    between atoms: _262  and  _263
REMARK  104  A    between atoms: _265  and  _267
REMARK  105  A    between atoms: _267  and  _268
REMARK  106  A    between atoms: _267  and  _270
REMARK  107  A    between atoms: _270  and  _271
REMARK  108  A    between atoms: _274  and  _276
REMARK  109  A    between atoms: _276  and  _277
REMARK  110  A    between atoms: _276  and  _279
REMARK  111  A    between atoms: _279  and  _280
REMARK  112  A    between atoms: _283  and  _285
REMARK  113  A    between atoms: _285  and  _286
REMARK  114  A    between atoms: _285  and  _288
REMARK  115  A    between atoms: _288  and  _289
REMARK  116  A    between atoms: _292  and  _294
REMARK  117  A    between atoms: _294  and  _295
REMARK  118  A    between atoms: _294  and  _297
REMARK  119  A    between atoms: _297  and  _298
REMARK  120  A    between atoms: _298  and  _299
REMARK  121  A    between atoms: _302  and  _304
REMARK  122  A    between atoms: _304  and  _305
REMARK  123  A    between atoms: _304  and  _307
REMARK  124  A    between atoms: _307  and  _308
REMARK  125  A    between atoms: _310  and  _312
REMARK  126  A    between atoms: _312  and  _313
REMARK  127  A    between atoms: _312  and  _315
REMARK  128  A    between atoms: _315  and  _316
REMARK  129  A    between atoms: _319  and  _321
REMARK  130  A    between atoms: _321  and  _322
REMARK  131  A    between atoms: _321  and  _324
REMARK  132  A    between atoms: _324  and  _325
REMARK  133  A    between atoms: _328  and  _330
REMARK  134  A    between atoms: _330  and  _331
REMARK  135  A    between atoms: _333  and  _335
REMARK  136  A    between atoms: _335  and  _336
REMARK  137  A    between atoms: _335  and  _338
REMARK  138  A    between atoms: _338  and  _339
REMARK  139  A    between atoms: _349  and  _351
REMARK  140  A    between atoms: _351  and  _352
REMARK  141  A    between atoms: _351  and  _354
REMARK  142  A    between atoms: _354  and  _355
REMARK  143  A    between atoms: _355  and  _356
REMARK  144  A    between atoms: _356  and  _357
REMARK  145  A    between atoms: _357  and  _358
REMARK  146  A    between atoms: _362  and  _364
REMARK  147  A    between atoms: _364  and  _365
REMARK  148  A    between atoms: _364  and  _367
REMARK  149  A    between atoms: _367  and  _368
REMARK  150  A    between atoms: _368  and  _369
REMARK  151  A    between atoms: _372  and  _374
REMARK  152  A    between atoms: _374  and  _375
REMARK  153  A    between atoms: _374  and  _377
REMARK  154  A    between atoms: _377  and  _378
REMARK  155  A    between atoms: _383  and  _384
REMARK  156  A    between atoms: _386  and  _388
REMARK  157  A    between atoms: _388  and  _389
REMARK  158  A    between atoms: _388  and  _391
REMARK  159  A    between atoms: _391  and  _392
REMARK  160  A    between atoms: _392  and  _393
REMARK  161  A    between atoms: _396  and  _398
REMARK  162  A    between atoms: _398  and  _399
REMARK  163  A    between atoms: _398  and  _401
REMARK  164  A    between atoms: _401  and  _402
REMARK  165  A    between atoms: _407  and  _409
REMARK  166  A    between atoms: _409  and  _410
REMARK  167  A    between atoms: _409  and  _412
REMARK  168  A    between atoms: _412  and  _413
REMARK  169  A    between atoms: _416  and  _418
REMARK  170  A    between atoms: _418  and  _419
REMARK  171  A    between atoms: _422  and  _424
REMARK  172  A    between atoms: _424  and  _425
REMARK  173  A    between atoms: _424  and  _427
REMARK  174  A    between atoms: _427  and  _428
REMARK  175  A    between atoms: _428  and  _429
REMARK  176  A    between atoms: _431  and  _433
REMARK  177  A    between atoms: _433  and  _434
REMARK  178  A    between atoms: _436  and  _438
REMARK  179  A    between atoms: _438  and  _439
REMARK  180  A    between atoms: _438  and  _441
REMARK  181  A    between atoms: _441  and  _442
REMARK  182  A    between atoms: _445  and  _447
REMARK  183  A    between atoms: _447  and  _448
REMARK  184  A    between atoms: _447  and  _450
REMARK  185  A    between atoms: _450  and  _451
REMARK  186  A    between atoms: _456  and  _458
REMARK  187  A    between atoms: _458  and  _459
REMARK  188  A    between atoms: _458  and  _461
REMARK  189  A    between atoms: _461  and  _462
REMARK  190  A    between atoms: _465  and  _467
REMARK  191  A    between atoms: _467  and  _468
REMARK  192  A    between atoms: _470  and  _472
REMARK  193  A    between atoms: _472  and  _473
REMARK  194  A    between atoms: _472  and  _475
REMARK  195  A    between atoms: _475  and  _476
REMARK  196  A    between atoms: _479  and  _481
REMARK  197  A    between atoms: _481  and  _482
REMARK  198  A    between atoms: _481  and  _484
REMARK  199  A    between atoms: _484  and  _485
REMARK  200  A    between atoms: _487  and  _489
REMARK  201  A    between atoms: _489  and  _490
REMARK  202  A    between atoms: _489  and  _492
REMARK  203  A    between atoms: _492  and  _493
REMARK  204  A    between atoms: _498  and  _500
REMARK  205  A    between atoms: _500  and  _501
REMARK  206  A    between atoms: _500  and  _503
REMARK  207  A    between atoms: _503  and  _504
REMARK  208  A    between atoms: _504  and  _505
REMARK  209  A    between atoms: _510  and  _512
REMARK  210  A    between atoms: _512  and  _513
REMARK  211  A    between atoms: _512  and  _515
REMARK  212  A    between atoms: _515  and  _516
REMARK  213  A    between atoms: _522  and  _524
REMARK  214  A    between atoms: _524  and  _525
REMARK  215  A    between atoms: _528  and  _530
REMARK  216  A    between atoms: _530  and  _531
REMARK  217  A    between atoms: _530  and  _533
REMARK  218  A    between atoms: _533  and  _534
REMARK  219  A    between atoms: _537  and  _539
REMARK  220  A    between atoms: _539  and  _540
REMARK  221  A    between atoms: _539  and  _542
REMARK  222  A    between atoms: _545  and  _547
REMARK  223  A    between atoms: _547  and  _548
REMARK  224  A    between atoms: _547  and  _550
REMARK  225  A    between atoms: _550  and  _551
REMARK  226  A    between atoms: _554  and  _556
REMARK  227  A    between atoms: _566  and  _569
REMARK  228  A    between atoms: _569  and  _570
REMARK  229  A    between atoms: _570  and  _571
REMARK  230  A    between atoms: _575  and  _576
REMARK  231  A    between atoms: _579  and  _581
REMARK  232  A    between atoms: _585  and  _586
REMARK  233  A    between atoms: _591  and  _593
REMARK  234  A    between atoms: _593  and  _594
REMARK  235  A    between atoms: _593  and  _596
REMARK  236  A    between atoms: _596  and  _597
REMARK  237  A    between atoms: _597  and  _598
REMARK  238  A    between atoms: _598  and  _599
REMARK  239  A    between atoms: _608  and  _610
REMARK  240  A    between atoms: _610  and  _611
REMARK  241  A    between atoms: _610  and  _613
REMARK  242  A    between atoms: _616  and  _618
REMARK  243  A    between atoms: _618  and  _619
REMARK  244  A    between atoms: _618  and  _621
REMARK  245  A    between atoms: _621  and  _622
REMARK  246  A    between atoms: _624  and  _626
REMARK  247  A    between atoms: _626  and  _627
REMARK  248  A    between atoms: _626  and  _629
REMARK  249  A    between atoms: _629  and  _630
REMARK  250  A    between atoms: _630  and  _631
REMARK  251  A    between atoms: _631  and  _632
REMARK  252  A    between atoms: _641  and  _643
REMARK  253  A    between atoms: _643  and  _644
REMARK  254  A    between atoms: _643  and  _646
REMARK  255  A    between atoms: _646  and  _647
REMARK  256  A    between atoms: _649  and  _651
REMARK  257  A    between atoms: _651  and  _652
REMARK  258  A    between atoms: _651  and  _654
REMARK  259  A    between atoms: _654  and  _655
REMARK  260  A    between atoms: _658  and  _660
REMARK  261  A    between atoms: _660  and  _661
REMARK  262  A    between atoms: _660  and  _663
REMARK  263  A    between atoms: _663  and  _664
REMARK  264  A    between atoms: _667  and  _669
REMARK  265  A    between atoms: _669  and  _670
REMARK  266  A    between atoms: _669  and  _672
REMARK  267  A    between atoms: _672  and  _673
REMARK  268  A    between atoms: _673  and  _674
REMARK  269  A    between atoms: _679  and  _681
REMARK  270  A    between atoms: _681  and  _682
REMARK  271  A    between atoms: _681  and  _684
REMARK  272  A    between atoms: _684  and  _685
REMARK  273  A    between atoms: _685  and  _686
REMARK  274  A    between atoms: _688  and  _690
REMARK  275  A    between atoms: _690  and  _691
REMARK  276  A    between atoms: _690  and  _693
REMARK  277  A    between atoms: _693  and  _694
REMARK  278  A    between atoms: _694  and  _695
REMARK  279  A    between atoms: _695  and  _696
REMARK  280  A    between atoms: _696  and  _697
REMARK                            x       y       z     vdW  Elec       q    Type
REMARK                         _______ _______ _______ _____ _____    ______ ____
ROOT
ATOM      1  O   HOH     1      15.248  43.088  64.129  0.00  0.00    +0.000 OA
ENDROOT
TORSDOF 0
REMARK  Name = ../refined-set-2016/1bxr/1bxr_pocket.pdb
REMARK  280 active torsions:
REMARK  status: ('A' for Active; 'I' for Inactive)
REMARK    1  A    between atoms: _1  and  _3
REMARK    2  A    between atoms: _3  and  _4
REMARK    3  A    between atoms: _6  and  _8
REMARK    4  A    between atoms: _8  and  _9
REMARK    5  A    between atoms: _8  and  _11
REMARK    6  A    between atoms: _11  and  _12
REMARK    7  A    between atoms: _12  and  _13
REMARK    8  A    between atoms: _18  and  _20
REMARK    9  A    between atoms: _20  and  _21
REMARK   10  A    between atoms: _20  and  _23
REMARK   11  A    between atoms: _23  and  _24
REMARK   12  A    between atoms: _30  and  _32
REMARK   13  A    between atoms: _32  and  _33
REMARK   14  A    between atoms: _32  and  _35
REMARK   15  A    between atoms: _35  and  _36
REMARK   16  A    between atoms: _36  and  _37
REMARK   17  A    between atoms: _42  and  _44
REMARK   18  A    between atoms: _44  and  _45
REMARK   19  A    between atoms: _48  and  _50
REMARK   20  A    between atoms: _50  and  _51
REMARK   21  A    between atoms: _50  and  _53
REMARK   22  A    between atoms: _53  and  _54
REMARK   23  A    between atoms: _54  and  _55
REMARK   24  A    between atoms: _58  and  _60
REMARK   25  A    between atoms: _60  and  _61
REMARK   26  A    between atoms: _60  and  _63
REMARK   27  A    between atoms: _63  and  _64
REMARK   28  A    between atoms: _65  and  _66
REMARK   29  A    between atoms: _75  and  _77
REMARK   30  A    between atoms: _77  and  _78
REMARK   31  A    between atoms: _77  and  _80
REMARK   32  A    between atoms: _80  and  _81
REMARK   33  A    between atoms: _84  and  _86
REMARK   34  A    between atoms: _86  and  _87
REMARK   35  A    between atoms: _90  and  _92
REMARK   36  A    between atoms: _92  and  _93
REMARK   37  A    between atoms: _92  and  _95
REMARK   38  A    between atoms: _95  and  _96
REMARK   39  A    between atoms: _96  and  _97
REMARK   40  A    between atoms: _97  and  _98
REMARK   41  A    between atoms: _107  and  _109
REMARK   42  A    between atoms: _109  and  _110
REMARK   43  A    between atoms: _109  and  _112
REMARK   44  A    between atoms: _112  and  _113
REMARK   45  A    between atoms: _116  and  _117
REMARK   46  A    between atoms: _122  and  _124
REMARK   47  A    between atoms: _124  and  _125
REMARK   48  A    between atoms: _124  and  _127
REMARK   49  A    between atoms: _129  and  _131
REMARK   50  A    between atoms: _131  and  _132
REMARK   51  A    between atoms: _131  and  _134
REMARK   52  A    between atoms: _134  and  _135
REMARK   53  A    between atoms: _138  and  _140
REMARK   54  A    between atoms: _140  and  _141
REMARK   55  A    between atoms: _140  and  _143
REMARK   56  A    between atoms: _143  and  _144
REMARK   57  A    between atoms: _147  and  _149
REMARK   58  A    between atoms: _149  and  _150
REMARK   59  A    between atoms: _149  and  _152
REMARK   60  A    between atoms: _152  and  _153
REMARK   61  A    between atoms: _153  and  _154
REMARK   62  A    between atoms: _154  and  _155
REMARK   63  A    between atoms: _165  and  _166
REMARK   64  A    between atoms: _171  and  _173
REMARK   65  A    between atoms: _173  and  _174
REMARK   66  A    between atoms: _173  and  _176
REMARK   67  A    between atoms: _176  and  _177
REMARK   68  A    between atoms: _179  and  _181
REMARK   69  A    between atoms: _181  and  _182
REMARK   70  A    between atoms: _181  and  _184
REMARK   71  A    between atoms: _184  and  _185
REMARK   72  A    between atoms: _191  and  _193
REMARK   73  A    between atoms: _193  and  _194
REMARK   74  A    between atoms: _193  and  _196
REMARK   75  A    between atoms: _196  and  _197
REMARK   76  A    between atoms: _200  and  _202
REMARK   77  A    between atoms: _202  and  _203
REMARK   78  A    between atoms: _202  and  _205
REMARK   79  A    between atoms: _205  and  _206
REMARK   80  A    between atoms: _206  and  _207
REMARK   81  A    between atoms: _209  and  _211
REMARK   82  A    between atoms: _211  and  _212
REMARK   83  A    between atoms: _214  and  _216
REMARK   84  A    between atoms: _216  and  _217
REMARK   85  A    between atoms: _219  and  _221
REMARK   86  A    between atoms: _221  and  _222
REMARK   87  A    between atoms: _221  and  _224
REMARK   88  A    between atoms: _224  and  _225
REMARK   89  A    between atoms: _227  and  _229
REMARK   90  A    between atoms: _229  and  _230
REMARK   91  A    between atoms: _232  and  _234
REMARK   92  A    between atoms: _234  and  _235
REMARK   93  A    between atoms: _237  and  _239
REMARK   94  A    between atoms: _239  and  _240
REMARK   95  A    between atoms: _242  and  _244
REMARK   96  A    between atoms: _244  and  _245
REMARK   97  A    between atoms: _244  and  _247
REMARK   98  A    between atoms: _247  and  _248
REMARK   99  A    between atoms: _251  and  _253
REMARK  100  A    between atoms: _253  and  _254
REMARK  101  A    between atoms: _253  and  _256
REMARK  102  A    between atoms: _256  and  _257
REMARK  103  A    between atoms: _262  and  _263
REMARK  104  A    between atoms: _265  and  _267
REMARK  105  A    between atoms: _267  and  _268
REMARK  106  A    between atoms: _267  and  _270
REMARK  107  A    between atoms: _270  and  _271
REMARK  108  A    between atoms: _274  and  _276
REMARK  109  A    between atoms: _276  and  _277
REMARK  110  A    between atoms: _276  and  _279
REMARK  111  A    between atoms: _279  and  _280
REMARK  112  A    between atoms: _283  and  _285
REMARK  113  A    between atoms: _285  and  _286
REMARK  114  A    between atoms: _285  and  _288
REMARK  115  A    between atoms: _288  and  _289
REMARK  116  A    between atoms: _292  and  _294
REMARK  117  A    between atoms: _294  and  _295
REMARK  118  A    between atoms: _294  and  _297
REMARK  119  A    between atoms: _297  and  _298
REMARK  120  A    between atoms: _298  and  _299
REMARK  121  A    between atoms: _302  and  _304
REMARK  122  A    between atoms: _304  and  _305
REMARK  123  A    between atoms: _304  and  _307
REMARK  124  A    between atoms: _307  and  _308
REMARK  125  A    between atoms: _310  and  _312
REMARK  126  A    between atoms: _312  and  _313
REMARK  127  A    between atoms: _312  and  _315
REMARK  128  A    between atoms: _315  and  _316
REMARK  129  A    between atoms: _319  and  _321
REMARK  130  A    between atoms: _321  and  _322
REMARK  131  A    between atoms: _321  and  _324
REMARK  132  A    between atoms: _324  and  _325
REMARK  133  A    between atoms: _328  and  _330
REMARK  134  A    between atoms: _330  and  _331
REMARK  135  A    between atoms: _333  and  _335
REMARK  136  A    between atoms: _335  and  _336
REMARK  137  A    between atoms: _335  and  _338
REMARK  138  A    between atoms: _338  and  _339
REMARK  139  A    between atoms: _349  and  _351
REMARK  140  A    between atoms: _351  and  _352
REMARK  141  A    between atoms: _351  and  _354
REMARK  142  A    between atoms: _354  and  _355
REMARK  143  A    between atoms: _355  and  _356
REMARK  144  A    between atoms: _356  and  _357
REMARK  145  A    between atoms: _357  and  _358
REMARK  146  A    between atoms: _362  and  _364
REMARK  147  A    between atoms: _364  and  _365
REMARK  148  A    between atoms: _364  and  _367
REMARK  149  A    between atoms: _367  and  _368
REMARK  150  A    between atoms: _368  and  _369
REMARK  151  A    between atoms: _372  and  _374
REMARK  152  A    between atoms: _374  and  _375
REMARK  153  A    between atoms: _374  and  _377
REMARK  154  A    between atoms: _377  and  _378
REMARK  155  A    between atoms: _383  and  _384
REMARK  156  A    between atoms: _386  and  _388
REMARK  157  A    between atoms: _388  and  _389
REMARK  158  A    between atoms: _388  and  _391
REMARK  159  A    between atoms: _391  and  _392
REMARK  160  A    between atoms: _392  and  _393
REMARK  161  A    between atoms: _396  and  _398
REMARK  162  A    between atoms: _398  and  _399
REMARK  163  A    between atoms: _398  and  _401
REMARK  164  A    between atoms: _401  and  _402
REMARK  165  A    between atoms: _407  and  _409
REMARK  166  A    between atoms: _409  and  _410
REMARK  167  A    between atoms: _409  and  _412
REMARK  168  A    between atoms: _412  and  _413
REMARK  169  A    between atoms: _416  and  _418
REMARK  170  A    between atoms: _418  and  _419
REMARK  171  A    between atoms: _422  and  _424
REMARK  172  A    between atoms: _424  and  _425
REMARK  173  A    between atoms: _424  and  _427
REMARK  174  A    between atoms: _427  and  _428
REMARK  175  A    between atoms: _428  and  _429
REMARK  176  A    between atoms: _431  and  _433
REMARK  177  A    between atoms: _433  and  _434
REMARK  178  A    between atoms: _436  and  _438
REMARK  179  A    between atoms: _438  and  _439
REMARK  180  A    between atoms: _438  and  _441
REMARK  181  A    between atoms: _441  and  _442
REMARK  182  A    between atoms: _445  and  _447
REMARK  183  A    between atoms: _447  and  _448
REMARK  184  A    between atoms: _447  and  _450
REMARK  185  A    between atoms: _450  and  _451
REMARK  186  A    between atoms: _456  and  _458
REMARK  187  A    between atoms: _458  and  _459
REMARK  188  A    between atoms: _458  and  _461
REMARK  189  A    between atoms: _461  and  _462
REMARK  190  A    between atoms: _465  and  _467
REMARK  191  A    between atoms: _467  and  _468
REMARK  192  A    between atoms: _470  and  _472
REMARK  193  A    between atoms: _472  and  _473
REMARK  194  A    between atoms: _472  and  _475
REMARK  195  A    between atoms: _475  and  _476
REMARK  196  A    between atoms: _479  and  _481
REMARK  197  A    between atoms: _481  and  _482
REMARK  198  A    between atoms: _481  and  _484
REMARK  199  A    between atoms: _484  and  _485
REMARK  200  A    between atoms: _487  and  _489
REMARK  201  A    between atoms: _489  and  _490
REMARK  202  A    between atoms: _489  and  _492
REMARK  203  A    between atoms: _492  and  _493
REMARK  204  A    between atoms: _498  and  _500
REMARK  205  A    between atoms: _500  and  _501
REMARK  206  A    between atoms: _500  and  _503
REMARK  207  A    between atoms: _503  and  _504
REMARK  208  A    between atoms: _504  and  _505
REMARK  209  A    between atoms: _510  and  _512
REMARK  210  A    between atoms: _512  and  _513
REMARK  211  A    between atoms: _512  and  _515
REMARK  212  A    between atoms: _515  and  _516
REMARK  213  A    between atoms: _522  and  _524
REMARK  214  A    between atoms: _524  and  _525
REMARK  215  A    between atoms: _528  and  _530
REMARK  216  A    between atoms: _530  and  _531
REMARK  217  A    between atoms: _530  and  _533
REMARK  218  A    between atoms: _533  and  _534
REMARK  219  A    between atoms: _537  and  _539
REMARK  220  A    between atoms: _539  and  _540
REMARK  221  A    between atoms: _539  and  _542
REMARK  222  A    between atoms: _545  and  _547
REMARK  223  A    between atoms: _547  and  _548
REMARK  224  A    between atoms: _547  and  _550
REMARK  225  A    between atoms: _550  and  _551
REMARK  226  A    between atoms: _554  and  _556
REMARK  227  A    between atoms: _566  and  _569
REMARK  228  A    between atoms: _569  and  _570
REMARK  229  A    between atoms: _570  and  _571
REMARK  230  A    between atoms: _575  and  _576
REMARK  231  A    between atoms: _579  and  _581
REMARK  232  A    between atoms: _585  and  _586
REMARK  233  A    between atoms: _591  and  _593
REMARK  234  A    between atoms: _593  and  _594
REMARK  235  A    between atoms: _593  and  _596
REMARK  236  A    between atoms: _596  and  _597
REMARK  237  A    between atoms: _597  and  _598
REMARK  238  A    between atoms: _598  and  _599
REMARK  239  A    between atoms: _608  and  _610
REMARK  240  A    between atoms: _610  and  _611
REMARK  241  A    between atoms: _610  and  _613
REMARK  242  A    between atoms: _616  and  _618
REMARK  243  A    between atoms: _618  and  _619
REMARK  244  A    between atoms: _618  and  _621
REMARK  245  A    between atoms: _621  and  _622
REMARK  246  A    between atoms: _624  and  _626
REMARK  247  A    between atoms: _626  and  _627
REMARK  248  A    between atoms: _626  and  _629
REMARK  249  A    between atoms: _629  and  _630
REMARK  250  A    between atoms: _630  and  _631
REMARK  251  A    between atoms: _631  and  _632
REMARK  252  A    between atoms: _641  and  _643
REMARK  253  A    between atoms: _643  and  _644
REMARK  254  A    between atoms: _643  and  _646
REMARK  255  A    between atoms: _646  and  _647
REMARK  256  A    between atoms: _649  and  _651
REMARK  257  A    between atoms: _651  and  _652
REMARK  258  A    between atoms: _651  and  _654
REMARK  259  A    between atoms: _654  and  _655
REMARK  260  A    between atoms: _658  and  _660
REMARK  261  A    between atoms: _660  and  _661
REMARK  262  A    between atoms: _660  and  _663
REMARK  263  A    between atoms: _663  and  _664
REMARK  264  A    between atoms: _667  and  _669
REMARK  265  A    between atoms: _669  and  _670
REMARK  266  A    between atoms: _669  and  _672
REMARK  267  A    between atoms: _672  and  _673
REMARK  268  A    between atoms: _673  and  _674
REMARK  269  A    between atoms: _679  and  _681
REMARK  270  A    between atoms: _681  and  _682
REMARK  271  A    between atoms: _681  and  _684
REMARK  272  A    between atoms: _684  and  _685
REMARK  273  A    between atoms: _685  and  _686
REMARK  274  A    between atoms: _688  and  _690
REMARK  275  A    between atoms: _690  and  _691
REMARK  276  A    between atoms: _690  and  _693
REMARK  277  A    between atoms: _693  and  _694
REMARK  278  A    between atoms: _694  and  _695
REMARK  279  A    between atoms: _695  and  _696
REMARK  280  A    between atoms: _696  and  _697
REMARK                            x       y       z     vdW  Elec       q    Type
REMARK                         _______ _______ _______ _____ _____    ______ ____
ROOT
ATOM      1  O   HOH     1      24.087  33.807  72.361  0.00  0.00    +0.000 OA
ENDROOT
TORSDOF 0
REMARK  Name = ../refined-set-2016/1bxr/1bxr_pocket.pdb
REMARK  280 active torsions:
REMARK  status: ('A' for Active; 'I' for Inactive)
REMARK    1  A    between atoms: _1  and  _3
REMARK    2  A    between atoms: _3  and  _4
REMARK    3  A    between atoms: _6  and  _8
REMARK    4  A    between atoms: _8  and  _9
REMARK    5  A    between atoms: _8  and  _11
REMARK    6  A    between atoms: _11  and  _12
REMARK    7  A    between atoms: _12  and  _13
REMARK    8  A    between atoms: _18  and  _20
REMARK    9  A    between atoms: _20  and  _21
REMARK   10  A    between atoms: _20  and  _23
REMARK   11  A    between atoms: _23  and  _24
REMARK   12  A    between atoms: _30  and  _32
REMARK   13  A    between atoms: _32  and  _33
REMARK   14  A    between atoms: _32  and  _35
REMARK   15  A    between atoms: _35  and  _36
REMARK   16  A    between atoms: _36  and  _37
REMARK   17  A    between atoms: _42  and  _44
REMARK   18  A    between atoms: _44  and  _45
REMARK   19  A    between atoms: _48  and  _50
REMARK   20  A    between atoms: _50  and  _51
REMARK   21  A    between atoms: _50  and  _53
REMARK   22  A    between atoms: _53  and  _54
REMARK   23  A    between atoms: _54  and  _55
REMARK   24  A    between atoms: _58  and  _60
REMARK   25  A    between atoms: _60  and  _61
REMARK   26  A    between atoms: _60  and  _63
REMARK   27  A    between atoms: _63  and  _64
REMARK   28  A    between atoms: _65  and  _66
REMARK   29  A    between atoms: _75  and  _77
REMARK   30  A    between atoms: _77  and  _78
REMARK   31  A    between atoms: _77  and  _80
REMARK   32  A    between atoms: _80  and  _81
REMARK   33  A    between atoms: _84  and  _86
REMARK   34  A    between atoms: _86  and  _87
REMARK   35  A    between atoms: _90  and  _92
REMARK   36  A    between atoms: _92  and  _93
REMARK   37  A    between atoms: _92  and  _95
REMARK   38  A    between atoms: _95  and  _96
REMARK   39  A    between atoms: _96  and  _97
REMARK   40  A    between atoms: _97  and  _98
REMARK   41  A    between atoms: _107  and  _109
REMARK   42  A    between atoms: _109  and  _110
REMARK   43  A    between atoms: _109  and  _112
REMARK   44  A    between atoms: _112  and  _113
REMARK   45  A    between atoms: _116  and  _117
REMARK   46  A    between atoms: _122  and  _124
REMARK   47  A    between atoms: _124  and  _125
REMARK   48  A    between atoms: _124  and  _127
REMARK   49  A    between atoms: _129  and  _131
REMARK   50  A    between atoms: _131  and  _132
REMARK   51  A    between atoms: _131  and  _134
REMARK   52  A    between atoms: _134  and  _135
REMARK   53  A    between atoms: _138  and  _140
REMARK   54  A    between atoms: _140  and  _141
REMARK   55  A    between atoms: _140  and  _143
REMARK   56  A    between atoms: _143  and  _144
REMARK   57  A    between atoms: _147  and  _149
REMARK   58  A    between atoms: _149  and  _150
REMARK   59  A    between atoms: _149  and  _152
REMARK   60  A    between atoms: _152  and  _153
REMARK   61  A    between atoms: _153  and  _154
REMARK   62  A    between atoms: _154  and  _155
REMARK   63  A    between atoms: _165  and  _166
REMARK   64  A    between atoms: _171  and  _173
REMARK   65  A    between atoms: _173  and  _174
REMARK   66  A    between atoms: _173  and  _176
REMARK   67  A    between atoms: _176  and  _177
REMARK   68  A    between atoms: _179  and  _181
REMARK   69  A    between atoms: _181  and  _182
REMARK   70  A    between atoms: _181  and  _184
REMARK   71  A    between atoms: _184  and  _185
REMARK   72  A    between atoms: _191  and  _193
REMARK   73  A    between atoms: _193  and  _194
REMARK   74  A    between atoms: _193  and  _196
REMARK   75  A    between atoms: _196  and  _197
REMARK   76  A    between atoms: _200  and  _202
REMARK   77  A    between atoms: _202  and  _203
REMARK   78  A    between atoms: _202  and  _205
REMARK   79  A    between atoms: _205  and  _206
REMARK   80  A    between atoms: _206  and  _207
REMARK   81  A    between atoms: _209  and  _211
REMARK   82  A    between atoms: _211  and  _212
REMARK   83  A    between atoms: _214  and  _216
REMARK   84  A    between atoms: _216  and  _217
REMARK   85  A    between atoms: _219  and  _221
REMARK   86  A    between atoms: _221  and  _222
REMARK   87  A    between atoms: _221  and  _224
REMARK   88  A    between atoms: _224  and  _225
REMARK   89  A    between atoms: _227  and  _229
REMARK   90  A    between atoms: _229  and  _230
REMARK   91  A    between atoms: _232  and  _234
REMARK   92  A    between atoms: _234  and  _235
REMARK   93  A    between atoms: _237  and  _239
REMARK   94  A    between atoms: _239  and  _240
REMARK   95  A    between atoms: _242  and  _244
REMARK   96  A    between atoms: _244  and  _245
REMARK   97  A    between atoms: _244  and  _247
REMARK   98  A    between atoms: _247  and  _248
REMARK   99  A    between atoms: _251  and  _253
REMARK  100  A    between atoms: _253  and  _254
REMARK  101  A    between atoms: _253  and  _256
REMARK  102  A    between atoms: _256  and  _257
REMARK  103  A    between atoms: _262  and  _263
REMARK  104  A    between atoms: _265  and  _267
REMARK  105  A    between atoms: _267  and  _268
REMARK  106  A    between atoms: _267  and  _270
REMARK  107  A    between atoms: _270  and  _271
REMARK  108  A    between atoms: _274  and  _276
REMARK  109  A    between atoms: _276  and  _277
REMARK  110  A    between atoms: _276  and  _279
REMARK  111  A    between atoms: _279  and  _280
REMARK  112  A    between atoms: _283  and  _285
REMARK  113  A    between atoms: _285  and  _286
REMARK  114  A    between atoms: _285  and  _288
REMARK  115  A    between atoms: _288  and  _289
REMARK  116  A    between atoms: _292  and  _294
REMARK  117  A    between atoms: _294  and  _295
REMARK  118  A    between atoms: _294  and  _297
REMARK  119  A    between atoms: _297  and  _298
REMARK  120  A    between atoms: _298  and  _299
REMARK  121  A    between atoms: _302  and  _304
REMARK  122  A    between atoms: _304  and  _305
REMARK  123  A    between atoms: _304  and  _307
REMARK  124  A    between atoms: _307  and  _308
REMARK  125  A    between atoms: _310  and  _312
REMARK  126  A    between atoms: _312  and  _313
REMARK  127  A    between atoms: _312  and  _315
REMARK  128  A    between atoms: _315  and  _316
REMARK  129  A    between atoms: _319  and  _321
REMARK  130  A    between atoms: _321  and  _322
REMARK  131  A    between atoms: _321  and  _324
REMARK  132  A    between atoms: _324  and  _325
REMARK  133  A    between atoms: _328  and  _330
REMARK  134  A    between atoms: _330  and  _331
REMARK  135  A    between atoms: _333  and  _335
REMARK  136  A    between atoms: _335  and  _336
REMARK  137  A    between atoms: _335  and  _338
REMARK  138  A    between atoms: _338  and  _339
REMARK  139  A    between atoms: _349  and  _351
REMARK  140  A    between atoms: _351  and  _352
REMARK  141  A    between atoms: _351  and  _354
REMARK  142  A    between atoms: _354  and  _355
REMARK  143  A    between atoms: _355  and  _356
REMARK  144  A    between atoms: _356  and  _357
REMARK  145  A    between atoms: _357  and  _358
REMARK  146  A    between atoms: _362  and  _364
REMARK  147  A    between atoms: _364  and  _365
REMARK  148  A    between atoms: _364  and  _367
REMARK  149  A    between atoms: _367  and  _368
REMARK  150  A    between atoms: _368  and  _369
REMARK  151  A    between atoms: _372  and  _374
REMARK  152  A    between atoms: _374  and  _375
REMARK  153  A    between atoms: _374  and  _377
REMARK  154  A    between atoms: _377  and  _378
REMARK  155  A    between atoms: _383  and  _384
REMARK  156  A    between atoms: _386  and  _388
REMARK  157  A    between atoms: _388  and  _389
REMARK  158  A    between atoms: _388  and  _391
REMARK  159  A    between atoms: _391  and  _392
REMARK  160  A    between atoms: _392  and  _393
REMARK  161  A    between atoms: _396  and  _398
REMARK  162  A    between atoms: _398  and  _399
REMARK  163  A    between atoms: _398  and  _401
REMARK  164  A    between atoms: _401  and  _402
REMARK  165  A    between atoms: _407  and  _409
REMARK  166  A    between atoms: _409  and  _410
REMARK  167  A    between atoms: _409  and  _412
REMARK  168  A    between atoms: _412  and  _413
REMARK  169  A    between atoms: _416  and  _418
REMARK  170  A    between atoms: _418  and  _419
REMARK  171  A    between atoms: _422  and  _424
REMARK  172  A    between atoms: _424  and  _425
REMARK  173  A    between atoms: _424  and  _427
REMARK  174  A    between atoms: _427  and  _428
REMARK  175  A    between atoms: _428  and  _429
REMARK  176  A    between atoms: _431  and  _433
REMARK  177  A    between atoms: _433  and  _434
REMARK  178  A    between atoms: _436  and  _438
REMARK  179  A    between atoms: _438  and  _439
REMARK  180  A    between atoms: _438  and  _441
REMARK  181  A    between atoms: _441  and  _442
REMARK  182  A    between atoms: _445  and  _447
REMARK  183  A    between atoms: _447  and  _448
REMARK  184  A    between atoms: _447  and  _450
REMARK  185  A    between atoms: _450  and  _451
REMARK  186  A    between atoms: _456  and  _458
REMARK  187  A    between atoms: _458  and  _459
REMARK  188  A    between atoms: _458  and  _461
REMARK  189  A    between atoms: _461  and  _462
REMARK  190  A    between atoms: _465  and  _467
REMARK  191  A    between atoms: _467  and  _468
REMARK  192  A    between atoms: _470  and  _472
REMARK  193  A    between atoms: _472  and  _473
REMARK  194  A    between atoms: _472  and  _475
REMARK  195  A    between atoms: _475  and  _476
REMARK  196  A    between atoms: _479  and  _481
REMARK  197  A    between atoms: _481  and  _482
REMARK  198  A    between atoms: _481  and  _484
REMARK  199  A    between atoms: _484  and  _485
REMARK  200  A    between atoms: _487  and  _489
REMARK  201  A    between atoms: _489  and  _490
REMARK  202  A    between atoms: _489  and  _492
REMARK  203  A    between atoms: _492  and  _493
REMARK  204  A    between atoms: _498  and  _500
REMARK  205  A    between atoms: _500  and  _501
REMARK  206  A    between atoms: _500  and  _503
REMARK  207  A    between atoms: _503  and  _504
REMARK  208  A    between atoms: _504  and  _505
REMARK  209  A    between atoms: _510  and  _512
REMARK  210  A    between atoms: _512  and  _513
REMARK  211  A    between atoms: _512  and  _515
REMARK  212  A    between atoms: _515  and  _516
REMARK  213  A    between atoms: _522  and  _524
REMARK  214  A    between atoms: _524  and  _525
REMARK  215  A    between atoms: _528  and  _530
REMARK  216  A    between atoms: _530  and  _531
REMARK  217  A    between atoms: _530  and  _533
REMARK  218  A    between atoms: _533  and  _534
REMARK  219  A    between atoms: _537  and  _539
REMARK  220  A    between atoms: _539  and  _540
REMARK  221  A    between atoms: _539  and  _542
REMARK  222  A    between atoms: _545  and  _547
REMARK  223  A    between atoms: _547  and  _548
REMARK  224  A    between atoms: _547  and  _550
REMARK  225  A    between atoms: _550  and  _551
REMARK  226  A    between atoms: _554  and  _556
REMARK  227  A    between atoms: _566  and  _569
REMARK  228  A    between atoms: _569  and  _570
REMARK  229  A    between atoms: _570  and  _571
REMARK  230  A    between atoms: _575  and  _576
REMARK  231  A    between atoms: _579  and  _581
REMARK  232  A    between atoms: _585  and  _586
REMARK  233  A    between atoms: _591  and  _593
REMARK  234  A    between atoms: _593  and  _594
REMARK  235  A    between atoms: _593  and  _596
REMARK  236  A    between atoms: _596  and  _597
REMARK  237  A    between atoms: _597  and  _598
REMARK  238  A    between atoms: _598  and  _599
REMARK  239  A    between atoms: _608  and  _610
REMARK  240  A    between atoms: _610  and  _611
REMARK  241  A    between atoms: _610  and  _613
REMARK  242  A    between atoms: _616  and  _618
REMARK  243  A    between atoms: _618  and  _619
REMARK  244  A    between atoms: _618  and  _621
REMARK  245  A    between atoms: _621  and  _622
REMARK  246  A    between atoms: _624  and  _626
REMARK  247  A    between atoms: _626  and  _627
REMARK  248  A    between atoms: _626  and  _629
REMARK  249  A    between atoms: _629  and  _630
REMARK  250  A    between atoms: _630  and  _631
REMARK  251  A    between atoms: _631  and  _632
REMARK  252  A    between atoms: _641  and  _643
REMARK  253  A    between atoms: _643  and  _644
REMARK  254  A    between atoms: _643  and  _646
REMARK  255  A    between atoms: _646  and  _647
REMARK  256  A    between atoms: _649  and  _651
REMARK  257  A    between atoms: _651  and  _652
REMARK  258  A    between atoms: _651  and  _654
REMARK  259  A    between atoms: _654  and  _655
REMARK  260  A    between atoms: _658  and  _660
REMARK  261  A    between atoms: _660  and  _661
REMARK  262  A    between atoms: _660  and  _663
REMARK  263  A    between atoms: _663  and  _664
REMARK  264  A    between atoms: _667  and  _669
REMARK  265  A    between atoms: _669  and  _670
REMARK  266  A    between atoms: _669  and  _672
REMARK  267  A    between atoms: _672  and  _673
REMARK  268  A    between atoms: _673  and  _674
REMARK  269  A    between atoms: _679  and  _681
REMARK  270  A    between atoms: _681  and  _682
REMARK  271  A    between atoms: _681  and  _684
REMARK  272  A    between atoms: _684  and  _685
REMARK  273  A    between atoms: _685  and  _686
REMARK  274  A    between atoms: _688  and  _690
REMARK  275  A    between atoms: _690  and  _691
REMARK  276  A    between atoms: _690  and  _693
REMARK  277  A    between atoms: _693  and  _694
REMARK  278  A    between atoms: _694  and  _695
REMARK  279  A    between atoms: _695  and  _696
REMARK  280  A    between atoms: _696  and  _697
REMARK                            x       y       z     vdW  Elec       q    Type
REMARK                         _______ _______ _______ _____ _____    ______ ____
ROOT
ATOM      1  O   HOH     1      14.801  25.270  74.730  0.00  0.00    +0.000 OA
ENDROOT
TORSDOF 0
REMARK  Name = ../refined-set-2016/1bxr/1bxr_pocket.pdb
REMARK  280 active torsions:
REMARK  status: ('A' for Active; 'I' for Inactive)
REMARK    1  A    between atoms: _1  and  _3
REMARK    2  A    between atoms: _3  and  _4
REMARK    3  A    between atoms: _6  and  _8
REMARK    4  A    between atoms: _8  and  _9
REMARK    5  A    between atoms: _8  and  _11
REMARK    6  A    between atoms: _11  and  _12
REMARK    7  A    between atoms: _12  and  _13
REMARK    8  A    between atoms: _18  and  _20
REMARK    9  A    between atoms: _20  and  _21
REMARK   10  A    between atoms: _20  and  _23
REMARK   11  A    between atoms: _23  and  _24
REMARK   12  A    between atoms: _30  and  _32
REMARK   13  A    between atoms: _32  and  _33
REMARK   14  A    between atoms: _32  and  _35
REMARK   15  A    between atoms: _35  and  _36
REMARK   16  A    between atoms: _36  and  _37
REMARK   17  A    between atoms: _42  and  _44
REMARK   18  A    between atoms: _44  and  _45
REMARK   19  A    between atoms: _48  and  _50
REMARK   20  A    between atoms: _50  and  _51
REMARK   21  A    between atoms: _50  and  _53
REMARK   22  A    between atoms: _53  and  _54
REMARK   23  A    between atoms: _54  and  _55
REMARK   24  A    between atoms: _58  and  _60
REMARK   25  A    between atoms: _60  and  _61
REMARK   26  A    between atoms: _60  and  _63
REMARK   27  A    between atoms: _63  and  _64
REMARK   28  A    between atoms: _65  and  _66
REMARK   29  A    between atoms: _75  and  _77
REMARK   30  A    between atoms: _77  and  _78
REMARK   31  A    between atoms: _77  and  _80
REMARK   32  A    between atoms: _80  and  _81
REMARK   33  A    between atoms: _84  and  _86
REMARK   34  A    between atoms: _86  and  _87
REMARK   35  A    between atoms: _90  and  _92
REMARK   36  A    between atoms: _92  and  _93
REMARK   37  A    between atoms: _92  and  _95
REMARK   38  A    between atoms: _95  and  _96
REMARK   39  A    between atoms: _96  and  _97
REMARK   40  A    between atoms: _97  and  _98
REMARK   41  A    between atoms: _107  and  _109
REMARK   42  A    between atoms: _109  and  _110
REMARK   43  A    between atoms: _109  and  _112
REMARK   44  A    between atoms: _112  and  _113
REMARK   45  A    between atoms: _116  and  _117
REMARK   46  A    between atoms: _122  and  _124
REMARK   47  A    between atoms: _124  and  _125
REMARK   48  A    between atoms: _124  and  _127
REMARK   49  A    between atoms: _129  and  _131
REMARK   50  A    between atoms: _131  and  _132
REMARK   51  A    between atoms: _131  and  _134
REMARK   52  A    between atoms: _134  and  _135
REMARK   53  A    between atoms: _138  and  _140
REMARK   54  A    between atoms: _140  and  _141
REMARK   55  A    between atoms: _140  and  _143
REMARK   56  A    between atoms: _143  and  _144
REMARK   57  A    between atoms: _147  and  _149
REMARK   58  A    between atoms: _149  and  _150
REMARK   59  A    between atoms: _149  and  _152
REMARK   60  A    between atoms: _152  and  _153
REMARK   61  A    between atoms: _153  and  _154
REMARK   62  A    between atoms: _154  and  _155
REMARK   63  A    between atoms: _165  and  _166
REMARK   64  A    between atoms: _171  and  _173
REMARK   65  A    between atoms: _173  and  _174
REMARK   66  A    between atoms: _173  and  _176
REMARK   67  A    between atoms: _176  and  _177
REMARK   68  A    between atoms: _179  and  _181
REMARK   69  A    between atoms: _181  and  _182
REMARK   70  A    between atoms: _181  and  _184
REMARK   71  A    between atoms: _184  and  _185
REMARK   72  A    between atoms: _191  and  _193
REMARK   73  A    between atoms: _193  and  _194
REMARK   74  A    between atoms: _193  and  _196
REMARK   75  A    between atoms: _196  and  _197
REMARK   76  A    between atoms: _200  and  _202
REMARK   77  A    between atoms: _202  and  _203
REMARK   78  A    between atoms: _202  and  _205
REMARK   79  A    between atoms: _205  and  _206
REMARK   80  A    between atoms: _206  and  _207
REMARK   81  A    between atoms: _209  and  _211
REMARK   82  A    between atoms: _211  and  _212
REMARK   83  A    between atoms: _214  and  _216
REMARK   84  A    between atoms: _216  and  _217
REMARK   85  A    between atoms: _219  and  _221
REMARK   86  A    between atoms: _221  and  _222
REMARK   87  A    between atoms: _221  and  _224
REMARK   88  A    between atoms: _224  and  _225
REMARK   89  A    between atoms: _227  and  _229
REMARK   90  A    between atoms: _229  and  _230
REMARK   91  A    between atoms: _232  and  _234
REMARK   92  A    between atoms: _234  and  _235
REMARK   93  A    between atoms: _237  and  _239
REMARK   94  A    between atoms: _239  and  _240
REMARK   95  A    between atoms: _242  and  _244
REMARK   96  A    between atoms: _244  and  _245
REMARK   97  A    between atoms: _244  and  _247
REMARK   98  A    between atoms: _247  and  _248
REMARK   99  A    between atoms: _251  and  _253
REMARK  100  A    between atoms: _253  and  _254
REMARK  101  A    between atoms: _253  and  _256
REMARK  102  A    between atoms: _256  and  _257
REMARK  103  A    between atoms: _262  and  _263
REMARK  104  A    between atoms: _265  and  _267
REMARK  105  A    between atoms: _267  and  _268
REMARK  106  A    between atoms: _267  and  _270
REMARK  107  A    between atoms: _270  and  _271
REMARK  108  A    between atoms: _274  and  _276
REMARK  109  A    between atoms: _276  and  _277
REMARK  110  A    between atoms: _276  and  _279
REMARK  111  A    between atoms: _279  and  _280
REMARK  112  A    between atoms: _283  and  _285
REMARK  113  A    between atoms: _285  and  _286
REMARK  114  A    between atoms: _285  and  _288
REMARK  115  A    between atoms: _288  and  _289
REMARK  116  A    between atoms: _292  and  _294
REMARK  117  A    between atoms: _294  and  _295
REMARK  118  A    between atoms: _294  and  _297
REMARK  119  A    between atoms: _297  and  _298
REMARK  120  A    between atoms: _298  and  _299
REMARK  121  A    between atoms: _302  and  _304
REMARK  122  A    between atoms: _304  and  _305
REMARK  123  A    between atoms: _304  and  _307
REMARK  124  A    between atoms: _307  and  _308
REMARK  125  A    between atoms: _310  and  _312
REMARK  126  A    between atoms: _312  and  _313
REMARK  127  A    between atoms: _312  and  _315
REMARK  128  A    between atoms: _315  and  _316
REMARK  129  A    between atoms: _319  and  _321
REMARK  130  A    between atoms: _321  and  _322
REMARK  131  A    between atoms: _321  and  _324
REMARK  132  A    between atoms: _324  and  _325
REMARK  133  A    between atoms: _328  and  _330
REMARK  134  A    between atoms: _330  and  _331
REMARK  135  A    between atoms: _333  and  _335
REMARK  136  A    between atoms: _335  and  _336
REMARK  137  A    between atoms: _335  and  _338
REMARK  138  A    between atoms: _338  and  _339
REMARK  139  A    between atoms: _349  and  _351
REMARK  140  A    between atoms: _351  and  _352
REMARK  141  A    between atoms: _351  and  _354
REMARK  142  A    between atoms: _354  and  _355
REMARK  143  A    between atoms: _355  and  _356
REMARK  144  A    between atoms: _356  and  _357
REMARK  145  A    between atoms: _357  and  _358
REMARK  146  A    between atoms: _362  and  _364
REMARK  147  A    between atoms: _364  and  _365
REMARK  148  A    between atoms: _364  and  _367
REMARK  149  A    between atoms: _367  and  _368
REMARK  150  A    between atoms: _368  and  _369
REMARK  151  A    between atoms: _372  and  _374
REMARK  152  A    between atoms: _374  and  _375
REMARK  153  A    between atoms: _374  and  _377
REMARK  154  A    between atoms: _377  and  _378
REMARK  155  A    between atoms: _383  and  _384
REMARK  156  A    between atoms: _386  and  _388
REMARK  157  A    between atoms: _388  and  _389
REMARK  158  A    between atoms: _388  and  _391
REMARK  159  A    between atoms: _391  and  _392
REMARK  160  A    between atoms: _392  and  _393
REMARK  161  A    between atoms: _396  and  _398
REMARK  162  A    between atoms: _398  and  _399
REMARK  163  A    between atoms: _398  and  _401
REMARK  164  A    between atoms: _401  and  _402
REMARK  165  A    between atoms: _407  and  _409
REMARK  166  A    between atoms: _409  and  _410
REMARK  167  A    between atoms: _409  and  _412
REMARK  168  A    between atoms: _412  and  _413
REMARK  169  A    between atoms: _416  and  _418
REMARK  170  A    between atoms: _418  and  _419
REMARK  171  A    between atoms: _422  and  _424
REMARK  172  A    between atoms: _424  and  _425
REMARK  173  A    between atoms: _424  and  _427
REMARK  174  A    between atoms: _427  and  _428
REMARK  175  A    between atoms: _428  and  _429
REMARK  176  A    between atoms: _431  and  _433
REMARK  177  A    between atoms: _433  and  _434
REMARK  178  A    between atoms: _436  and  _438
REMARK  179  A    between atoms: _438  and  _439
REMARK  180  A    between atoms: _438  and  _441
REMARK  181  A    between atoms: _441  and  _442
REMARK  182  A    between atoms: _445  and  _447
REMARK  183  A    between atoms: _447  and  _448
REMARK  184  A    between atoms: _447  and  _450
REMARK  185  A    between atoms: _450  and  _451
REMARK  186  A    between atoms: _456  and  _458
REMARK  187  A    between atoms: _458  and  _459
REMARK  188  A    between atoms: _458  and  _461
REMARK  189  A    between atoms: _461  and  _462
REMARK  190  A    between atoms: _465  and  _467
REMARK  191  A    between atoms: _467  and  _468
REMARK  192  A    between atoms: _470  and  _472
REMARK  193  A    between atoms: _472  and  _473
REMARK  194  A    between atoms: _472  and  _475
REMARK  195  A    between atoms: _475  and  _476
REMARK  196  A    between atoms: _479  and  _481
REMARK  197  A    between atoms: _481  and  _482
REMARK  198  A    between atoms: _481  and  _484
REMARK  199  A    between atoms: _484  and  _485
REMARK  200  A    between atoms: _487  and  _489
REMARK  201  A    between atoms: _489  and  _490
REMARK  202  A    between atoms: _489  and  _492
REMARK  203  A    between atoms: _492  and  _493
REMARK  204  A    between atoms: _498  and  _500
REMARK  205  A    between atoms: _500  and  _501
REMARK  206  A    between atoms: _500  and  _503
REMARK  207  A    between atoms: _503  and  _504
REMARK  208  A    between atoms: _504  and  _505
REMARK  209  A    between atoms: _510  and  _512
REMARK  210  A    between atoms: _512  and  _513
REMARK  211  A    between atoms: _512  and  _515
REMARK  212  A    between atoms: _515  and  _516
REMARK  213  A    between atoms: _522  and  _524
REMARK  214  A    between atoms: _524  and  _525
REMARK  215  A    between atoms: _528  and  _530
REMARK  216  A    between atoms: _530  and  _531
REMARK  217  A    between atoms: _530  and  _533
REMARK  218  A    between atoms: _533  and  _534
REMARK  219  A    between atoms: _537  and  _539
REMARK  220  A    between atoms: _539  and  _540
REMARK  221  A    between atoms: _539  and  _542
REMARK  222  A    between atoms: _545  and  _547
REMARK  223  A    between atoms: _547  and  _548
REMARK  224  A    between atoms: _547  and  _550
REMARK  225  A    between atoms: _550  and  _551
REMARK  226  A    between atoms: _554  and  _556
REMARK  227  A    between atoms: _566  and  _569
REMARK  228  A    between atoms: _569  and  _570
REMARK  229  A    between atoms: _570  and  _571
REMARK  230  A    between atoms: _575  and  _576
REMARK  231  A    between atoms: _579  and  _581
REMARK  232  A    between atoms: _585  and  _586
REMARK  233  A    between atoms: _591  and  _593
REMARK  234  A    between atoms: _593  and  _594
REMARK  235  A    between atoms: _593  and  _596
REMARK  236  A    between atoms: _596  and  _597
REMARK  237  A    between atoms: _597  and  _598
REMARK  238  A    between atoms: _598  and  _599
REMARK  239  A    between atoms: _608  and  _610
REMARK  240  A    between atoms: _610  and  _611
REMARK  241  A    between atoms: _610  and  _613
REMARK  242  A    between atoms: _616  and  _618
REMARK  243  A    between atoms: _618  and  _619
REMARK  244  A    between atoms: _618  and  _621
REMARK  245  A    between atoms: _621  and  _622
REMARK  246  A    between atoms: _624  and  _626
REMARK  247  A    between atoms: _626  and  _627
REMARK  248  A    between atoms: _626  and  _629
REMARK  249  A    between atoms: _629  and  _630
REMARK  250  A    between atoms: _630  and  _631
REMARK  251  A    between atoms: _631  and  _632
REMARK  252  A    between atoms: _641  and  _643
REMARK  253  A    between atoms: _643  and  _644
REMARK  254  A    between atoms: _643  and  _646
REMARK  255  A    between atoms: _646  and  _647
REMARK  256  A    between atoms: _649  and  _651
REMARK  257  A    between atoms: _651  and  _652
REMARK  258  A    between atoms: _651  and  _654
REMARK  259  A    between atoms: _654  and  _655
REMARK  260  A    between atoms: _658  and  _660
REMARK  261  A    between atoms: _660  and  _661
REMARK  262  A    between atoms: _660  and  _663
REMARK  263  A    between atoms: _663  and  _664
REMARK  264  A    between atoms: _667  and  _669
REMARK  265  A    between atoms: _669  and  _670
REMARK  266  A    between atoms: _669  and  _672
REMARK  267  A    between atoms: _672  and  _673
REMARK  268  A    between atoms: _673  and  _674
REMARK  269  A    between atoms: _679  and  _681
REMARK  270  A    between atoms: _681  and  _682
REMARK  271  A    between atoms: _681  and  _684
REMARK  272  A    between atoms: _684  and  _685
REMARK  273  A    between atoms: _685  and  _686
REMARK  274  A    between atoms: _688  and  _690
REMARK  275  A    between atoms: _690  and  _691
REMARK  276  A    between atoms: _690  and  _693
REMARK  277  A    between atoms: _693  and  _694
REMARK  278  A    between atoms: _694  and  _695
REMARK  279  A    between atoms: _695  and  _696
REMARK  280  A    between atoms: _696  and  _697
REMARK                            x       y       z     vdW  Elec       q    Type
REMARK                         _______ _______ _______ _____ _____    ______ ____
ROOT
ATOM      1  O   HOH     1      14.383  28.061  77.256  0.00  0.00    +0.000 OA
ENDROOT
TORSDOF 0
REMARK  Name = ../refined-set-2016/1bxr/1bxr_pocket.pdb
REMARK  280 active torsions:
REMARK  status: ('A' for Active; 'I' for Inactive)
REMARK    1  A    between atoms: _1  and  _3
REMARK    2  A    between atoms: _3  and  _4
REMARK    3  A    between atoms: _6  and  _8
REMARK    4  A    between atoms: _8  and  _9
REMARK    5  A    between atoms: _8  and  _11
REMARK    6  A    between atoms: _11  and  _12
REMARK    7  A    between atoms: _12  and  _13
REMARK    8  A    between atoms: _18  and  _20
REMARK    9  A    between atoms: _20  and  _21
REMARK   10  A    between atoms: _20  and  _23
REMARK   11  A    between atoms: _23  and  _24
REMARK   12  A    between atoms: _30  and  _32
REMARK   13  A    between atoms: _32  and  _33
REMARK   14  A    between atoms: _32  and  _35
REMARK   15  A    between atoms: _35  and  _36
REMARK   16  A    between atoms: _36  and  _37
REMARK   17  A    between atoms: _42  and  _44
REMARK   18  A    between atoms: _44  and  _45
REMARK   19  A    between atoms: _48  and  _50
REMARK   20  A    between atoms: _50  and  _51
REMARK   21  A    between atoms: _50  and  _53
REMARK   22  A    between atoms: _53  and  _54
REMARK   23  A    between atoms: _54  and  _55
REMARK   24  A    between atoms: _58  and  _60
REMARK   25  A    between atoms: _60  and  _61
REMARK   26  A    between atoms: _60  and  _63
REMARK   27  A    between atoms: _63  and  _64
REMARK   28  A    between atoms: _65  and  _66
REMARK   29  A    between atoms: _75  and  _77
REMARK   30  A    between atoms: _77  and  _78
REMARK   31  A    between atoms: _77  and  _80
REMARK   32  A    between atoms: _80  and  _81
REMARK   33  A    between atoms: _84  and  _86
REMARK   34  A    between atoms: _86  and  _87
REMARK   35  A    between atoms: _90  and  _92
REMARK   36  A    between atoms: _92  and  _93
REMARK   37  A    between atoms: _92  and  _95
REMARK   38  A    between atoms: _95  and  _96
REMARK   39  A    between atoms: _96  and  _97
REMARK   40  A    between atoms: _97  and  _98
REMARK   41  A    between atoms: _107  and  _109
REMARK   42  A    between atoms: _109  and  _110
REMARK   43  A    between atoms: _109  and  _112
REMARK   44  A    between atoms: _112  and  _113
REMARK   45  A    between atoms: _116  and  _117
REMARK   46  A    between atoms: _122  and  _124
REMARK   47  A    between atoms: _124  and  _125
REMARK   48  A    between atoms: _124  and  _127
REMARK   49  A    between atoms: _129  and  _131
REMARK   50  A    between atoms: _131  and  _132
REMARK   51  A    between atoms: _131  and  _134
REMARK   52  A    between atoms: _134  and  _135
REMARK   53  A    between atoms: _138  and  _140
REMARK   54  A    between atoms: _140  and  _141
REMARK   55  A    between atoms: _140  and  _143
REMARK   56  A    between atoms: _143  and  _144
REMARK   57  A    between atoms: _147  and  _149
REMARK   58  A    between atoms: _149  and  _150
REMARK   59  A    between atoms: _149  and  _152
REMARK   60  A    between atoms: _152  and  _153
REMARK   61  A    between atoms: _153  and  _154
REMARK   62  A    between atoms: _154  and  _155
REMARK   63  A    between atoms: _165  and  _166
REMARK   64  A    between atoms: _171  and  _173
REMARK   65  A    between atoms: _173  and  _174
REMARK   66  A    between atoms: _173  and  _176
REMARK   67  A    between atoms: _176  and  _177
REMARK   68  A    between atoms: _179  and  _181
REMARK   69  A    between atoms: _181  and  _182
REMARK   70  A    between atoms: _181  and  _184
REMARK   71  A    between atoms: _184  and  _185
REMARK   72  A    between atoms: _191  and  _193
REMARK   73  A    between atoms: _193  and  _194
REMARK   74  A    between atoms: _193  and  _196
REMARK   75  A    between atoms: _196  and  _197
REMARK   76  A    between atoms: _200  and  _202
REMARK   77  A    between atoms: _202  and  _203
REMARK   78  A    between atoms: _202  and  _205
REMARK   79  A    between atoms: _205  and  _206
REMARK   80  A    between atoms: _206  and  _207
REMARK   81  A    between atoms: _209  and  _211
REMARK   82  A    between atoms: _211  and  _212
REMARK   83  A    between atoms: _214  and  _216
REMARK   84  A    between atoms: _216  and  _217
REMARK   85  A    between atoms: _219  and  _221
REMARK   86  A    between atoms: _221  and  _222
REMARK   87  A    between atoms: _221  and  _224
REMARK   88  A    between atoms: _224  and  _225
REMARK   89  A    between atoms: _227  and  _229
REMARK   90  A    between atoms: _229  and  _230
REMARK   91  A    between atoms: _232  and  _234
REMARK   92  A    between atoms: _234  and  _235
REMARK   93  A    between atoms: _237  and  _239
REMARK   94  A    between atoms: _239  and  _240
REMARK   95  A    between atoms: _242  and  _244
REMARK   96  A    between atoms: _244  and  _245
REMARK   97  A    between atoms: _244  and  _247
REMARK   98  A    between atoms: _247  and  _248
REMARK   99  A    between atoms: _251  and  _253
REMARK  100  A    between atoms: _253  and  _254
REMARK  101  A    between atoms: _253  and  _256
REMARK  102  A    between atoms: _256  and  _257
REMARK  103  A    between atoms: _262  and  _263
REMARK  104  A    between atoms: _265  and  _267
REMARK  105  A    between atoms: _267  and  _268
REMARK  106  A    between atoms: _267  and  _270
REMARK  107  A    between atoms: _270  and  _271
REMARK  108  A    between atoms: _274  and  _276
REMARK  109  A    between atoms: _276  and  _277
REMARK  110  A    between atoms: _276  and  _279
REMARK  111  A    between atoms: _279  and  _280
REMARK  112  A    between atoms: _283  and  _285
REMARK  113  A    between atoms: _285  and  _286
REMARK  114  A    between atoms: _285  and  _288
REMARK  115  A    between atoms: _288  and  _289
REMARK  116  A    between atoms: _292  and  _294
REMARK  117  A    between atoms: _294  and  _295
REMARK  118  A    between atoms: _294  and  _297
REMARK  119  A    between atoms: _297  and  _298
REMARK  120  A    between atoms: _298  and  _299
REMARK  121  A    between atoms: _302  and  _304
REMARK  122  A    between atoms: _304  and  _305
REMARK  123  A    between atoms: _304  and  _307
REMARK  124  A    between atoms: _307  and  _308
REMARK  125  A    between atoms: _310  and  _312
REMARK  126  A    between atoms: _312  and  _313
REMARK  127  A    between atoms: _312  and  _315
REMARK  128  A    between atoms: _315  and  _316
REMARK  129  A    between atoms: _319  and  _321
REMARK  130  A    between atoms: _321  and  _322
REMARK  131  A    between atoms: _321  and  _324
REMARK  132  A    between atoms: _324  and  _325
REMARK  133  A    between atoms: _328  and  _330
REMARK  134  A    between atoms: _330  and  _331
REMARK  135  A    between atoms: _333  and  _335
REMARK  136  A    between atoms: _335  and  _336
REMARK  137  A    between atoms: _335  and  _338
REMARK  138  A    between atoms: _338  and  _339
REMARK  139  A    between atoms: _349  and  _351
REMARK  140  A    between atoms: _351  and  _352
REMARK  141  A    between atoms: _351  and  _354
REMARK  142  A    between atoms: _354  and  _355
REMARK  143  A    between atoms: _355  and  _356
REMARK  144  A    between atoms: _356  and  _357
REMARK  145  A    between atoms: _357  and  _358
REMARK  146  A    between atoms: _362  and  _364
REMARK  147  A    between atoms: _364  and  _365
REMARK  148  A    between atoms: _364  and  _367
REMARK  149  A    between atoms: _367  and  _368
REMARK  150  A    between atoms: _368  and  _369
REMARK  151  A    between atoms: _372  and  _374
REMARK  152  A    between atoms: _374  and  _375
REMARK  153  A    between atoms: _374  and  _377
REMARK  154  A    between atoms: _377  and  _378
REMARK  155  A    between atoms: _383  and  _384
REMARK  156  A    between atoms: _386  and  _388
REMARK  157  A    between atoms: _388  and  _389
REMARK  158  A    between atoms: _388  and  _391
REMARK  159  A    between atoms: _391  and  _392
REMARK  160  A    between atoms: _392  and  _393
REMARK  161  A    between atoms: _396  and  _398
REMARK  162  A    between atoms: _398  and  _399
REMARK  163  A    between atoms: _398  and  _401
REMARK  164  A    between atoms: _401  and  _402
REMARK  165  A    between atoms: _407  and  _409
REMARK  166  A    between atoms: _409  and  _410
REMARK  167  A    between atoms: _409  and  _412
REMARK  168  A    between atoms: _412  and  _413
REMARK  169  A    between atoms: _416  and  _418
REMARK  170  A    between atoms: _418  and  _419
REMARK  171  A    between atoms: _422  and  _424
REMARK  172  A    between atoms: _424  and  _425
REMARK  173  A    between atoms: _424  and  _427
REMARK  174  A    between atoms: _427  and  _428
REMARK  175  A    between atoms: _428  and  _429
REMARK  176  A    between atoms: _431  and  _433
REMARK  177  A    between atoms: _433  and  _434
REMARK  178  A    between atoms: _436  and  _438
REMARK  179  A    between atoms: _438  and  _439
REMARK  180  A    between atoms: _438  and  _441
REMARK  181  A    between atoms: _441  and  _442
REMARK  182  A    between atoms: _445  and  _447
REMARK  183  A    between atoms: _447  and  _448
REMARK  184  A    between atoms: _447  and  _450
REMARK  185  A    between atoms: _450  and  _451
REMARK  186  A    between atoms: _456  and  _458
REMARK  187  A    between atoms: _458  and  _459
REMARK  188  A    between atoms: _458  and  _461
REMARK  189  A    between atoms: _461  and  _462
REMARK  190  A    between atoms: _465  and  _467
REMARK  191  A    between atoms: _467  and  _468
REMARK  192  A    between atoms: _470  and  _472
REMARK  193  A    between atoms: _472  and  _473
REMARK  194  A    between atoms: _472  and  _475
REMARK  195  A    between atoms: _475  and  _476
REMARK  196  A    between atoms: _479  and  _481
REMARK  197  A    between atoms: _481  and  _482
REMARK  198  A    between atoms: _481  and  _484
REMARK  199  A    between atoms: _484  and  _485
REMARK  200  A    between atoms: _487  and  _489
REMARK  201  A    between atoms: _489  and  _490
REMARK  202  A    between atoms: _489  and  _492
REMARK  203  A    between atoms: _492  and  _493
REMARK  204  A    between atoms: _498  and  _500
REMARK  205  A    between atoms: _500  and  _501
REMARK  206  A    between atoms: _500  and  _503
REMARK  207  A    between atoms: _503  and  _504
REMARK  208  A    between atoms: _504  and  _505
REMARK  209  A    between atoms: _510  and  _512
REMARK  210  A    between atoms: _512  and  _513
REMARK  211  A    between atoms: _512  and  _515
REMARK  212  A    between atoms: _515  and  _516
REMARK  213  A    between atoms: _522  and  _524
REMARK  214  A    between atoms: _524  and  _525
REMARK  215  A    between atoms: _528  and  _530
REMARK  216  A    between atoms: _530  and  _531
REMARK  217  A    between atoms: _530  and  _533
REMARK  218  A    between atoms: _533  and  _534
REMARK  219  A    between atoms: _537  and  _539
REMARK  220  A    between atoms: _539  and  _540
REMARK  221  A    between atoms: _539  and  _542
REMARK  222  A    between atoms: _545  and  _547
REMARK  223  A    between atoms: _547  and  _548
REMARK  224  A    between atoms: _547  and  _550
REMARK  225  A    between atoms: _550  and  _551
REMARK  226  A    between atoms: _554  and  _556
REMARK  227  A    between atoms: _566  and  _569
REMARK  228  A    between atoms: _569  and  _570
REMARK  229  A    between atoms: _570  and  _571
REMARK  230  A    between atoms: _575  and  _576
REMARK  231  A    between atoms: _579  and  _581
REMARK  232  A    between atoms: _585  and  _586
REMARK  233  A    between atoms: _591  and  _593
REMARK  234  A    between atoms: _593  and  _594
REMARK  235  A    between atoms: _593  and  _596
REMARK  236  A    between atoms: _596  and  _597
REMARK  237  A    between atoms: _597  and  _598
REMARK  238  A    between atoms: _598  and  _599
REMARK  239  A    between atoms: _608  and  _610
REMARK  240  A    between atoms: _610  and  _611
REMARK  241  A    between atoms: _610  and  _613
REMARK  242  A    between atoms: _616  and  _618
REMARK  243  A    between atoms: _618  and  _619
REMARK  244  A    between atoms: _618  and  _621
REMARK  245  A    between atoms: _621  and  _622
REMARK  246  A    between atoms: _624  and  _626
REMARK  247  A    between atoms: _626  and  _627
REMARK  248  A    between atoms: _626  and  _629
REMARK  249  A    between atoms: _629  and  _630
REMARK  250  A    between atoms: _630  and  _631
REMARK  251  A    between atoms: _631  and  _632
REMARK  252  A    between atoms: _641  and  _643
REMARK  253  A    between atoms: _643  and  _644
REMARK  254  A    between atoms: _643  and  _646
REMARK  255  A    between atoms: _646  and  _647
REMARK  256  A    between atoms: _649  and  _651
REMARK  257  A    between atoms: _651  and  _652
REMARK  258  A    between atoms: _651  and  _654
REMARK  259  A    between atoms: _654  and  _655
REMARK  260  A    between atoms: _658  and  _660
REMARK  261  A    between atoms: _660  and  _661
REMARK  262  A    between atoms: _660  and  _663
REMARK  263  A    between atoms: _663  and  _664
REMARK  264  A    between atoms: _667  and  _669
REMARK  265  A    between atoms: _669  and  _670
REMARK  266  A    between atoms: _669  and  _672
REMARK  267  A    between atoms: _672  and  _673
REMARK  268  A    between atoms: _673  and  _674
REMARK  269  A    between atoms: _679  and  _681
REMARK  270  A    between atoms: _681  and  _682
REMARK  271  A    between atoms: _681  and  _684
REMARK  272  A    between atoms: _684  and  _685
REMARK  273  A    between atoms: _685  and  _686
REMARK  274  A    between atoms: _688  and  _690
REMARK  275  A    between atoms: _690  and  _691
REMARK  276  A    between atoms: _690  and  _693
REMARK  277  A    between atoms: _693  and  _694
REMARK  278  A    between atoms: _694  and  _695
REMARK  279  A    between atoms: _695  and  _696
REMARK  280  A    between atoms: _696  and  _697
REMARK                            x       y       z     vdW  Elec       q    Type
REMARK                         _______ _______ _______ _____ _____    ______ ____
ROOT
ATOM      1  O   HOH     1      26.071  35.703  72.428  0.00  0.00    +0.000 OA
ENDROOT
TORSDOF 0
REMARK  Name = ../refined-set-2016/1bxr/1bxr_pocket.pdb
REMARK  280 active torsions:
REMARK  status: ('A' for Active; 'I' for Inactive)
REMARK    1  A    between atoms: _1  and  _3
REMARK    2  A    between atoms: _3  and  _4
REMARK    3  A    between atoms: _6  and  _8
REMARK    4  A    between atoms: _8  and  _9
REMARK    5  A    between atoms: _8  and  _11
REMARK    6  A    between atoms: _11  and  _12
REMARK    7  A    between atoms: _12  and  _13
REMARK    8  A    between atoms: _18  and  _20
REMARK    9  A    between atoms: _20  and  _21
REMARK   10  A    between atoms: _20  and  _23
REMARK   11  A    between atoms: _23  and  _24
REMARK   12  A    between atoms: _30  and  _32
REMARK   13  A    between atoms: _32  and  _33
REMARK   14  A    between atoms: _32  and  _35
REMARK   15  A    between atoms: _35  and  _36
REMARK   16  A    between atoms: _36  and  _37
REMARK   17  A    between atoms: _42  and  _44
REMARK   18  A    between atoms: _44  and  _45
REMARK   19  A    between atoms: _48  and  _50
REMARK   20  A    between atoms: _50  and  _51
REMARK   21  A    between atoms: _50  and  _53
REMARK   22  A    between atoms: _53  and  _54
REMARK   23  A    between atoms: _54  and  _55
REMARK   24  A    between atoms: _58  and  _60
REMARK   25  A    between atoms: _60  and  _61
REMARK   26  A    between atoms: _60  and  _63
REMARK   27  A    between atoms: _63  and  _64
REMARK   28  A    between atoms: _65  and  _66
REMARK   29  A    between atoms: _75  and  _77
REMARK   30  A    between atoms: _77  and  _78
REMARK   31  A    between atoms: _77  and  _80
REMARK   32  A    between atoms: _80  and  _81
REMARK   33  A    between atoms: _84  and  _86
REMARK   34  A    between atoms: _86  and  _87
REMARK   35  A    between atoms: _90  and  _92
REMARK   36  A    between atoms: _92  and  _93
REMARK   37  A    between atoms: _92  and  _95
REMARK   38  A    between atoms: _95  and  _96
REMARK   39  A    between atoms: _96  and  _97
REMARK   40  A    between atoms: _97  and  _98
REMARK   41  A    between atoms: _107  and  _109
REMARK   42  A    between atoms: _109  and  _110
REMARK   43  A    between atoms: _109  and  _112
REMARK   44  A    between atoms: _112  and  _113
REMARK   45  A    between atoms: _116  and  _117
REMARK   46  A    between atoms: _122  and  _124
REMARK   47  A    between atoms: _124  and  _125
REMARK   48  A    between atoms: _124  and  _127
REMARK   49  A    between atoms: _129  and  _131
REMARK   50  A    between atoms: _131  and  _132
REMARK   51  A    between atoms: _131  and  _134
REMARK   52  A    between atoms: _134  and  _135
REMARK   53  A    between atoms: _138  and  _140
REMARK   54  A    between atoms: _140  and  _141
REMARK   55  A    between atoms: _140  and  _143
REMARK   56  A    between atoms: _143  and  _144
REMARK   57  A    between atoms: _147  and  _149
REMARK   58  A    between atoms: _149  and  _150
REMARK   59  A    between atoms: _149  and  _152
REMARK   60  A    between atoms: _152  and  _153
REMARK   61  A    between atoms: _153  and  _154
REMARK   62  A    between atoms: _154  and  _155
REMARK   63  A    between atoms: _165  and  _166
REMARK   64  A    between atoms: _171  and  _173
REMARK   65  A    between atoms: _173  and  _174
REMARK   66  A    between atoms: _173  and  _176
REMARK   67  A    between atoms: _176  and  _177
REMARK   68  A    between atoms: _179  and  _181
REMARK   69  A    between atoms: _181  and  _182
REMARK   70  A    between atoms: _181  and  _184
REMARK   71  A    between atoms: _184  and  _185
REMARK   72  A    between atoms: _191  and  _193
REMARK   73  A    between atoms: _193  and  _194
REMARK   74  A    between atoms: _193  and  _196
REMARK   75  A    between atoms: _196  and  _197
REMARK   76  A    between atoms: _200  and  _202
REMARK   77  A    between atoms: _202  and  _203
REMARK   78  A    between atoms: _202  and  _205
REMARK   79  A    between atoms: _205  and  _206
REMARK   80  A    between atoms: _206  and  _207
REMARK   81  A    between atoms: _209  and  _211
REMARK   82  A    between atoms: _211  and  _212
REMARK   83  A    between atoms: _214  and  _216
REMARK   84  A    between atoms: _216  and  _217
REMARK   85  A    between atoms: _219  and  _221
REMARK   86  A    between atoms: _221  and  _222
REMARK   87  A    between atoms: _221  and  _224
REMARK   88  A    between atoms: _224  and  _225
REMARK   89  A    between atoms: _227  and  _229
REMARK   90  A    between atoms: _229  and  _230
REMARK   91  A    between atoms: _232  and  _234
REMARK   92  A    between atoms: _234  and  _235
REMARK   93  A    between atoms: _237  and  _239
REMARK   94  A    between atoms: _239  and  _240
REMARK   95  A    between atoms: _242  and  _244
REMARK   96  A    between atoms: _244  and  _245
REMARK   97  A    between atoms: _244  and  _247
REMARK   98  A    between atoms: _247  and  _248
REMARK   99  A    between atoms: _251  and  _253
REMARK  100  A    between atoms: _253  and  _254
REMARK  101  A    between atoms: _253  and  _256
REMARK  102  A    between atoms: _256  and  _257
REMARK  103  A    between atoms: _262  and  _263
REMARK  104  A    between atoms: _265  and  _267
REMARK  105  A    between atoms: _267  and  _268
REMARK  106  A    between atoms: _267  and  _270
REMARK  107  A    between atoms: _270  and  _271
REMARK  108  A    between atoms: _274  and  _276
REMARK  109  A    between atoms: _276  and  _277
REMARK  110  A    between atoms: _276  and  _279
REMARK  111  A    between atoms: _279  and  _280
REMARK  112  A    between atoms: _283  and  _285
REMARK  113  A    between atoms: _285  and  _286
REMARK  114  A    between atoms: _285  and  _288
REMARK  115  A    between atoms: _288  and  _289
REMARK  116  A    between atoms: _292  and  _294
REMARK  117  A    between atoms: _294  and  _295
REMARK  118  A    between atoms: _294  and  _297
REMARK  119  A    between atoms: _297  and  _298
REMARK  120  A    between atoms: _298  and  _299
REMARK  121  A    between atoms: _302  and  _304
REMARK  122  A    between atoms: _304  and  _305
REMARK  123  A    between atoms: _304  and  _307
REMARK  124  A    between atoms: _307  and  _308
REMARK  125  A    between atoms: _310  and  _312
REMARK  126  A    between atoms: _312  and  _313
REMARK  127  A    between atoms: _312  and  _315
REMARK  128  A    between atoms: _315  and  _316
REMARK  129  A    between atoms: _319  and  _321
REMARK  130  A    between atoms: _321  and  _322
REMARK  131  A    between atoms: _321  and  _324
REMARK  132  A    between atoms: _324  and  _325
REMARK  133  A    between atoms: _328  and  _330
REMARK  134  A    between atoms: _330  and  _331
REMARK  135  A    between atoms: _333  and  _335
REMARK  136  A    between atoms: _335  and  _336
REMARK  137  A    between atoms: _335  and  _338
REMARK  138  A    between atoms: _338  and  _339
REMARK  139  A    between atoms: _349  and  _351
REMARK  140  A    between atoms: _351  and  _352
REMARK  141  A    between atoms: _351  and  _354
REMARK  142  A    between atoms: _354  and  _355
REMARK  143  A    between atoms: _355  and  _356
REMARK  144  A    between atoms: _356  and  _357
REMARK  145  A    between atoms: _357  and  _358
REMARK  146  A    between atoms: _362  and  _364
REMARK  147  A    between atoms: _364  and  _365
REMARK  148  A    between atoms: _364  and  _367
REMARK  149  A    between atoms: _367  and  _368
REMARK  150  A    between atoms: _368  and  _369
REMARK  151  A    between atoms: _372  and  _374
REMARK  152  A    between atoms: _374  and  _375
REMARK  153  A    between atoms: _374  and  _377
REMARK  154  A    between atoms: _377  and  _378
REMARK  155  A    between atoms: _383  and  _384
REMARK  156  A    between atoms: _386  and  _388
REMARK  157  A    between atoms: _388  and  _389
REMARK  158  A    between atoms: _388  and  _391
REMARK  159  A    between atoms: _391  and  _392
REMARK  160  A    between atoms: _392  and  _393
REMARK  161  A    between atoms: _396  and  _398
REMARK  162  A    between atoms: _398  and  _399
REMARK  163  A    between atoms: _398  and  _401
REMARK  164  A    between atoms: _401  and  _402
REMARK  165  A    between atoms: _407  and  _409
REMARK  166  A    between atoms: _409  and  _410
REMARK  167  A    between atoms: _409  and  _412
REMARK  168  A    between atoms: _412  and  _413
REMARK  169  A    between atoms: _416  and  _418
REMARK  170  A    between atoms: _418  and  _419
REMARK  171  A    between atoms: _422  and  _424
REMARK  172  A    between atoms: _424  and  _425
REMARK  173  A    between atoms: _424  and  _427
REMARK  174  A    between atoms: _427  and  _428
REMARK  175  A    between atoms: _428  and  _429
REMARK  176  A    between atoms: _431  and  _433
REMARK  177  A    between atoms: _433  and  _434
REMARK  178  A    between atoms: _436  and  _438
REMARK  179  A    between atoms: _438  and  _439
REMARK  180  A    between atoms: _438  and  _441
REMARK  181  A    between atoms: _441  and  _442
REMARK  182  A    between atoms: _445  and  _447
REMARK  183  A    between atoms: _447  and  _448
REMARK  184  A    between atoms: _447  and  _450
REMARK  185  A    between atoms: _450  and  _451
REMARK  186  A    between atoms: _456  and  _458
REMARK  187  A    between atoms: _458  and  _459
REMARK  188  A    between atoms: _458  and  _461
REMARK  189  A    between atoms: _461  and  _462
REMARK  190  A    between atoms: _465  and  _467
REMARK  191  A    between atoms: _467  and  _468
REMARK  192  A    between atoms: _470  and  _472
REMARK  193  A    between atoms: _472  and  _473
REMARK  194  A    between atoms: _472  and  _475
REMARK  195  A    between atoms: _475  and  _476
REMARK  196  A    between atoms: _479  and  _481
REMARK  197  A    between atoms: _481  and  _482
REMARK  198  A    between atoms: _481  and  _484
REMARK  199  A    between atoms: _484  and  _485
REMARK  200  A    between atoms: _487  and  _489
REMARK  201  A    between atoms: _489  and  _490
REMARK  202  A    between atoms: _489  and  _492
REMARK  203  A    between atoms: _492  and  _493
REMARK  204  A    between atoms: _498  and  _500
REMARK  205  A    between atoms: _500  and  _501
REMARK  206  A    between atoms: _500  and  _503
REMARK  207  A    between atoms: _503  and  _504
REMARK  208  A    between atoms: _504  and  _505
REMARK  209  A    between atoms: _510  and  _512
REMARK  210  A    between atoms: _512  and  _513
REMARK  211  A    between atoms: _512  and  _515
REMARK  212  A    between atoms: _515  and  _516
REMARK  213  A    between atoms: _522  and  _524
REMARK  214  A    between atoms: _524  and  _525
REMARK  215  A    between atoms: _528  and  _530
REMARK  216  A    between atoms: _530  and  _531
REMARK  217  A    between atoms: _530  and  _533
REMARK  218  A    between atoms: _533  and  _534
REMARK  219  A    between atoms: _537  and  _539
REMARK  220  A    between atoms: _539  and  _540
REMARK  221  A    between atoms: _539  and  _542
REMARK  222  A    between atoms: _545  and  _547
REMARK  223  A    between atoms: _547  and  _548
REMARK  224  A    between atoms: _547  and  _550
REMARK  225  A    between atoms: _550  and  _551
REMARK  226  A    between atoms: _554  and  _556
REMARK  227  A    between atoms: _566  and  _569
REMARK  228  A    between atoms: _569  and  _570
REMARK  229  A    between atoms: _570  and  _571
REMARK  230  A    between atoms: _575  and  _576
REMARK  231  A    between atoms: _579  and  _581
REMARK  232  A    between atoms: _585  and  _586
REMARK  233  A    between atoms: _591  and  _593
REMARK  234  A    between atoms: _593  and  _594
REMARK  235  A    between atoms: _593  and  _596
REMARK  236  A    between atoms: _596  and  _597
REMARK  237  A    between atoms: _597  and  _598
REMARK  238  A    between atoms: _598  and  _599
REMARK  239  A    between atoms: _608  and  _610
REMARK  240  A    between atoms: _610  and  _611
REMARK  241  A    between atoms: _610  and  _613
REMARK  242  A    between atoms: _616  and  _618
REMARK  243  A    between atoms: _618  and  _619
REMARK  244  A    between atoms: _618  and  _621
REMARK  245  A    between atoms: _621  and  _622
REMARK  246  A    between atoms: _624  and  _626
REMARK  247  A    between atoms: _626  and  _627
REMARK  248  A    between atoms: _626  and  _629
REMARK  249  A    between atoms: _629  and  _630
REMARK  250  A    between atoms: _630  and  _631
REMARK  251  A    between atoms: _631  and  _632
REMARK  252  A    between atoms: _641  and  _643
REMARK  253  A    between atoms: _643  and  _644
REMARK  254  A    between atoms: _643  and  _646
REMARK  255  A    between atoms: _646  and  _647
REMARK  256  A    between atoms: _649  and  _651
REMARK  257  A    between atoms: _651  and  _652
REMARK  258  A    between atoms: _651  and  _654
REMARK  259  A    between atoms: _654  and  _655
REMARK  260  A    between atoms: _658  and  _660
REMARK  261  A    between atoms: _660  and  _661
REMARK  262  A    between atoms: _660  and  _663
REMARK  263  A    between atoms: _663  and  _664
REMARK  264  A    between atoms: _667  and  _669
REMARK  265  A    between atoms: _669  and  _670
REMARK  266  A    between atoms: _669  and  _672
REMARK  267  A    between atoms: _672  and  _673
REMARK  268  A    between atoms: _673  and  _674
REMARK  269  A    between atoms: _679  and  _681
REMARK  270  A    between atoms: _681  and  _682
REMARK  271  A    between atoms: _681  and  _684
REMARK  272  A    between atoms: _684  and  _685
REMARK  273  A    between atoms: _685  and  _686
REMARK  274  A    between atoms: _688  and  _690
REMARK  275  A    between atoms: _690  and  _691
REMARK  276  A    between atoms: _690  and  _693
REMARK  277  A    between atoms: _693  and  _694
REMARK  278  A    between atoms: _694  and  _695
REMARK  279  A    between atoms: _695  and  _696
REMARK  280  A    between atoms: _696  and  _697
REMARK                            x       y       z     vdW  Elec       q    Type
REMARK                         _______ _______ _______ _____ _____    ______ ____
ROOT
ATOM      1  O   HOH     1      11.620  28.947  75.352  0.00  0.00    +0.000 OA
ENDROOT
TORSDOF 0
REMARK  Name = ../refined-set-2016/1bxr/1bxr_pocket.pdb
REMARK  280 active torsions:
REMARK  status: ('A' for Active; 'I' for Inactive)
REMARK    1  A    between atoms: _1  and  _3
REMARK    2  A    between atoms: _3  and  _4
REMARK    3  A    between atoms: _6  and  _8
REMARK    4  A    between atoms: _8  and  _9
REMARK    5  A    between atoms: _8  and  _11
REMARK    6  A    between atoms: _11  and  _12
REMARK    7  A    between atoms: _12  and  _13
REMARK    8  A    between atoms: _18  and  _20
REMARK    9  A    between atoms: _20  and  _21
REMARK   10  A    between atoms: _20  and  _23
REMARK   11  A    between atoms: _23  and  _24
REMARK   12  A    between atoms: _30  and  _32
REMARK   13  A    between atoms: _32  and  _33
REMARK   14  A    between atoms: _32  and  _35
REMARK   15  A    between atoms: _35  and  _36
REMARK   16  A    between atoms: _36  and  _37
REMARK   17  A    between atoms: _42  and  _44
REMARK   18  A    between atoms: _44  and  _45
REMARK   19  A    between atoms: _48  and  _50
REMARK   20  A    between atoms: _50  and  _51
REMARK   21  A    between atoms: _50  and  _53
REMARK   22  A    between atoms: _53  and  _54
REMARK   23  A    between atoms: _54  and  _55
REMARK   24  A    between atoms: _58  and  _60
REMARK   25  A    between atoms: _60  and  _61
REMARK   26  A    between atoms: _60  and  _63
REMARK   27  A    between atoms: _63  and  _64
REMARK   28  A    between atoms: _65  and  _66
REMARK   29  A    between atoms: _75  and  _77
REMARK   30  A    between atoms: _77  and  _78
REMARK   31  A    between atoms: _77  and  _80
REMARK   32  A    between atoms: _80  and  _81
REMARK   33  A    between atoms: _84  and  _86
REMARK   34  A    between atoms: _86  and  _87
REMARK   35  A    between atoms: _90  and  _92
REMARK   36  A    between atoms: _92  and  _93
REMARK   37  A    between atoms: _92  and  _95
REMARK   38  A    between atoms: _95  and  _96
REMARK   39  A    between atoms: _96  and  _97
REMARK   40  A    between atoms: _97  and  _98
REMARK   41  A    between atoms: _107  and  _109
REMARK   42  A    between atoms: _109  and  _110
REMARK   43  A    between atoms: _109  and  _112
REMARK   44  A    between atoms: _112  and  _113
REMARK   45  A    between atoms: _116  and  _117
REMARK   46  A    between atoms: _122  and  _124
REMARK   47  A    between atoms: _124  and  _125
REMARK   48  A    between atoms: _124  and  _127
REMARK   49  A    between atoms: _129  and  _131
REMARK   50  A    between atoms: _131  and  _132
REMARK   51  A    between atoms: _131  and  _134
REMARK   52  A    between atoms: _134  and  _135
REMARK   53  A    between atoms: _138  and  _140
REMARK   54  A    between atoms: _140  and  _141
REMARK   55  A    between atoms: _140  and  _143
REMARK   56  A    between atoms: _143  and  _144
REMARK   57  A    between atoms: _147  and  _149
REMARK   58  A    between atoms: _149  and  _150
REMARK   59  A    between atoms: _149  and  _152
REMARK   60  A    between atoms: _152  and  _153
REMARK   61  A    between atoms: _153  and  _154
REMARK   62  A    between atoms: _154  and  _155
REMARK   63  A    between atoms: _165  and  _166
REMARK   64  A    between atoms: _171  and  _173
REMARK   65  A    between atoms: _173  and  _174
REMARK   66  A    between atoms: _173  and  _176
REMARK   67  A    between atoms: _176  and  _177
REMARK   68  A    between atoms: _179  and  _181
REMARK   69  A    between atoms: _181  and  _182
REMARK   70  A    between atoms: _181  and  _184
REMARK   71  A    between atoms: _184  and  _185
REMARK   72  A    between atoms: _191  and  _193
REMARK   73  A    between atoms: _193  and  _194
REMARK   74  A    between atoms: _193  and  _196
REMARK   75  A    between atoms: _196  and  _197
REMARK   76  A    between atoms: _200  and  _202
REMARK   77  A    between atoms: _202  and  _203
REMARK   78  A    between atoms: _202  and  _205
REMARK   79  A    between atoms: _205  and  _206
REMARK   80  A    between atoms: _206  and  _207
REMARK   81  A    between atoms: _209  and  _211
REMARK   82  A    between atoms: _211  and  _212
REMARK   83  A    between atoms: _214  and  _216
REMARK   84  A    between atoms: _216  and  _217
REMARK   85  A    between atoms: _219  and  _221
REMARK   86  A    between atoms: _221  and  _222
REMARK   87  A    between atoms: _221  and  _224
REMARK   88  A    between atoms: _224  and  _225
REMARK   89  A    between atoms: _227  and  _229
REMARK   90  A    between atoms: _229  and  _230
REMARK   91  A    between atoms: _232  and  _234
REMARK   92  A    between atoms: _234  and  _235
REMARK   93  A    between atoms: _237  and  _239
REMARK   94  A    between atoms: _239  and  _240
REMARK   95  A    between atoms: _242  and  _244
REMARK   96  A    between atoms: _244  and  _245
REMARK   97  A    between atoms: _244  and  _247
REMARK   98  A    between atoms: _247  and  _248
REMARK   99  A    between atoms: _251  and  _253
REMARK  100  A    between atoms: _253  and  _254
REMARK  101  A    between atoms: _253  and  _256
REMARK  102  A    between atoms: _256  and  _257
REMARK  103  A    between atoms: _262  and  _263
REMARK  104  A    between atoms: _265  and  _267
REMARK  105  A    between atoms: _267  and  _268
REMARK  106  A    between atoms: _267  and  _270
REMARK  107  A    between atoms: _270  and  _271
REMARK  108  A    between atoms: _274  and  _276
REMARK  109  A    between atoms: _276  and  _277
REMARK  110  A    between atoms: _276  and  _279
REMARK  111  A    between atoms: _279  and  _280
REMARK  112  A    between atoms: _283  and  _285
REMARK  113  A    between atoms: _285  and  _286
REMARK  114  A    between atoms: _285  and  _288
REMARK  115  A    between atoms: _288  and  _289
REMARK  116  A    between atoms: _292  and  _294
REMARK  117  A    between atoms: _294  and  _295
REMARK  118  A    between atoms: _294  and  _297
REMARK  119  A    between atoms: _297  and  _298
REMARK  120  A    between atoms: _298  and  _299
REMARK  121  A    between atoms: _302  and  _304
REMARK  122  A    between atoms: _304  and  _305
REMARK  123  A    between atoms: _304  and  _307
REMARK  124  A    between atoms: _307  and  _308
REMARK  125  A    between atoms: _310  and  _312
REMARK  126  A    between atoms: _312  and  _313
REMARK  127  A    between atoms: _312  and  _315
REMARK  128  A    between atoms: _315  and  _316
REMARK  129  A    between atoms: _319  and  _321
REMARK  130  A    between atoms: _321  and  _322
REMARK  131  A    between atoms: _321  and  _324
REMARK  132  A    between atoms: _324  and  _325
REMARK  133  A    between atoms: _328  and  _330
REMARK  134  A    between atoms: _330  and  _331
REMARK  135  A    between atoms: _333  and  _335
REMARK  136  A    between atoms: _335  and  _336
REMARK  137  A    between atoms: _335  and  _338
REMARK  138  A    between atoms: _338  and  _339
REMARK  139  A    between atoms: _349  and  _351
REMARK  140  A    between atoms: _351  and  _352
REMARK  141  A    between atoms: _351  and  _354
REMARK  142  A    between atoms: _354  and  _355
REMARK  143  A    between atoms: _355  and  _356
REMARK  144  A    between atoms: _356  and  _357
REMARK  145  A    between atoms: _357  and  _358
REMARK  146  A    between atoms: _362  and  _364
REMARK  147  A    between atoms: _364  and  _365
REMARK  148  A    between atoms: _364  and  _367
REMARK  149  A    between atoms: _367  and  _368
REMARK  150  A    between atoms: _368  and  _369
REMARK  151  A    between atoms: _372  and  _374
REMARK  152  A    between atoms: _374  and  _375
REMARK  153  A    between atoms: _374  and  _377
REMARK  154  A    between atoms: _377  and  _378
REMARK  155  A    between atoms: _383  and  _384
REMARK  156  A    between atoms: _386  and  _388
REMARK  157  A    between atoms: _388  and  _389
REMARK  158  A    between atoms: _388  and  _391
REMARK  159  A    between atoms: _391  and  _392
REMARK  160  A    between atoms: _392  and  _393
REMARK  161  A    between atoms: _396  and  _398
REMARK  162  A    between atoms: _398  and  _399
REMARK  163  A    between atoms: _398  and  _401
REMARK  164  A    between atoms: _401  and  _402
REMARK  165  A    between atoms: _407  and  _409
REMARK  166  A    between atoms: _409  and  _410
REMARK  167  A    between atoms: _409  and  _412
REMARK  168  A    between atoms: _412  and  _413
REMARK  169  A    between atoms: _416  and  _418
REMARK  170  A    between atoms: _418  and  _419
REMARK  171  A    between atoms: _422  and  _424
REMARK  172  A    between atoms: _424  and  _425
REMARK  173  A    between atoms: _424  and  _427
REMARK  174  A    between atoms: _427  and  _428
REMARK  175  A    between atoms: _428  and  _429
REMARK  176  A    between atoms: _431  and  _433
REMARK  177  A    between atoms: _433  and  _434
REMARK  178  A    between atoms: _436  and  _438
REMARK  179  A    between atoms: _438  and  _439
REMARK  180  A    between atoms: _438  and  _441
REMARK  181  A    between atoms: _441  and  _442
REMARK  182  A    between atoms: _445  and  _447
REMARK  183  A    between atoms: _447  and  _448
REMARK  184  A    between atoms: _447  and  _450
REMARK  185  A    between atoms: _450  and  _451
REMARK  186  A    between atoms: _456  and  _458
REMARK  187  A    between atoms: _458  and  _459
REMARK  188  A    between atoms: _458  and  _461
REMARK  189  A    between atoms: _461  and  _462
REMARK  190  A    between atoms: _465  and  _467
REMARK  191  A    between atoms: _467  and  _468
REMARK  192  A    between atoms: _470  and  _472
REMARK  193  A    between atoms: _472  and  _473
REMARK  194  A    between atoms: _472  and  _475
REMARK  195  A    between atoms: _475  and  _476
REMARK  196  A    between atoms: _479  and  _481
REMARK  197  A    between atoms: _481  and  _482
REMARK  198  A    between atoms: _481  and  _484
REMARK  199  A    between atoms: _484  and  _485
REMARK  200  A    between atoms: _487  and  _489
REMARK  201  A    between atoms: _489  and  _490
REMARK  202  A    between atoms: _489  and  _492
REMARK  203  A    between atoms: _492  and  _493
REMARK  204  A    between atoms: _498  and  _500
REMARK  205  A    between atoms: _500  and  _501
REMARK  206  A    between atoms: _500  and  _503
REMARK  207  A    between atoms: _503  and  _504
REMARK  208  A    between atoms: _504  and  _505
REMARK  209  A    between atoms: _510  and  _512
REMARK  210  A    between atoms: _512  and  _513
REMARK  211  A    between atoms: _512  and  _515
REMARK  212  A    between atoms: _515  and  _516
REMARK  213  A    between atoms: _522  and  _524
REMARK  214  A    between atoms: _524  and  _525
REMARK  215  A    between atoms: _528  and  _530
REMARK  216  A    between atoms: _530  and  _531
REMARK  217  A    between atoms: _530  and  _533
REMARK  218  A    between atoms: _533  and  _534
REMARK  219  A    between atoms: _537  and  _539
REMARK  220  A    between atoms: _539  and  _540
REMARK  221  A    between atoms: _539  and  _542
REMARK  222  A    between atoms: _545  and  _547
REMARK  223  A    between atoms: _547  and  _548
REMARK  224  A    between atoms: _547  and  _550
REMARK  225  A    between atoms: _550  and  _551
REMARK  226  A    between atoms: _554  and  _556
REMARK  227  A    between atoms: _566  and  _569
REMARK  228  A    between atoms: _569  and  _570
REMARK  229  A    between atoms: _570  and  _571
REMARK  230  A    between atoms: _575  and  _576
REMARK  231  A    between atoms: _579  and  _581
REMARK  232  A    between atoms: _585  and  _586
REMARK  233  A    between atoms: _591  and  _593
REMARK  234  A    between atoms: _593  and  _594
REMARK  235  A    between atoms: _593  and  _596
REMARK  236  A    between atoms: _596  and  _597
REMARK  237  A    between atoms: _597  and  _598
REMARK  238  A    between atoms: _598  and  _599
REMARK  239  A    between atoms: _608  and  _610
REMARK  240  A    between atoms: _610  and  _611
REMARK  241  A    between atoms: _610  and  _613
REMARK  242  A    between atoms: _616  and  _618
REMARK  243  A    between atoms: _618  and  _619
REMARK  244  A    between atoms: _618  and  _621
REMARK  245  A    between atoms: _621  and  _622
REMARK  246  A    between atoms: _624  and  _626
REMARK  247  A    between atoms: _626  and  _627
REMARK  248  A    between atoms: _626  and  _629
REMARK  249  A    between atoms: _629  and  _630
REMARK  250  A    between atoms: _630  and  _631
REMARK  251  A    between atoms: _631  and  _632
REMARK  252  A    between atoms: _641  and  _643
REMARK  253  A    between atoms: _643  and  _644
REMARK  254  A    between atoms: _643  and  _646
REMARK  255  A    between atoms: _646  and  _647
REMARK  256  A    between atoms: _649  and  _651
REMARK  257  A    between atoms: _651  and  _652
REMARK  258  A    between atoms: _651  and  _654
REMARK  259  A    between atoms: _654  and  _655
REMARK  260  A    between atoms: _658  and  _660
REMARK  261  A    between atoms: _660  and  _661
REMARK  262  A    between atoms: _660  and  _663
REMARK  263  A    between atoms: _663  and  _664
REMARK  264  A    between atoms: _667  and  _669
REMARK  265  A    between atoms: _669  and  _670
REMARK  266  A    between atoms: _669  and  _672
REMARK  267  A    between atoms: _672  and  _673
REMARK  268  A    between atoms: _673  and  _674
REMARK  269  A    between atoms: _679  and  _681
REMARK  270  A    between atoms: _681  and  _682
REMARK  271  A    between atoms: _681  and  _684
REMARK  272  A    between atoms: _684  and  _685
REMARK  273  A    between atoms: _685  and  _686
REMARK  274  A    between atoms: _688  and  _690
REMARK  275  A    between atoms: _690  and  _691
REMARK  276  A    between atoms: _690  and  _693
REMARK  277  A    between atoms: _693  and  _694
REMARK  278  A    between atoms: _694  and  _695
REMARK  279  A    between atoms: _695  and  _696
REMARK  280  A    between atoms: _696  and  _697
REMARK                            x       y       z     vdW  Elec       q    Type
REMARK                         _______ _______ _______ _____ _____    ______ ____
ROOT
ATOM      1  O   HOH     1       6.771  43.945  65.942  0.00  0.00    +0.000 OA
ENDROOT
TORSDOF 0
REMARK  Name = ../refined-set-2016/1bxr/1bxr_pocket.pdb
REMARK  280 active torsions:
REMARK  status: ('A' for Active; 'I' for Inactive)
REMARK    1  A    between atoms: _1  and  _3
REMARK    2  A    between atoms: _3  and  _4
REMARK    3  A    between atoms: _6  and  _8
REMARK    4  A    between atoms: _8  and  _9
REMARK    5  A    between atoms: _8  and  _11
REMARK    6  A    between atoms: _11  and  _12
REMARK    7  A    between atoms: _12  and  _13
REMARK    8  A    between atoms: _18  and  _20
REMARK    9  A    between atoms: _20  and  _21
REMARK   10  A    between atoms: _20  and  _23
REMARK   11  A    between atoms: _23  and  _24
REMARK   12  A    between atoms: _30  and  _32
REMARK   13  A    between atoms: _32  and  _33
REMARK   14  A    between atoms: _32  and  _35
REMARK   15  A    between atoms: _35  and  _36
REMARK   16  A    between atoms: _36  and  _37
REMARK   17  A    between atoms: _42  and  _44
REMARK   18  A    between atoms: _44  and  _45
REMARK   19  A    between atoms: _48  and  _50
REMARK   20  A    between atoms: _50  and  _51
REMARK   21  A    between atoms: _50  and  _53
REMARK   22  A    between atoms: _53  and  _54
REMARK   23  A    between atoms: _54  and  _55
REMARK   24  A    between atoms: _58  and  _60
REMARK   25  A    between atoms: _60  and  _61
REMARK   26  A    between atoms: _60  and  _63
REMARK   27  A    between atoms: _63  and  _64
REMARK   28  A    between atoms: _65  and  _66
REMARK   29  A    between atoms: _75  and  _77
REMARK   30  A    between atoms: _77  and  _78
REMARK   31  A    between atoms: _77  and  _80
REMARK   32  A    between atoms: _80  and  _81
REMARK   33  A    between atoms: _84  and  _86
REMARK   34  A    between atoms: _86  and  _87
REMARK   35  A    between atoms: _90  and  _92
REMARK   36  A    between atoms: _92  and  _93
REMARK   37  A    between atoms: _92  and  _95
REMARK   38  A    between atoms: _95  and  _96
REMARK   39  A    between atoms: _96  and  _97
REMARK   40  A    between atoms: _97  and  _98
REMARK   41  A    between atoms: _107  and  _109
REMARK   42  A    between atoms: _109  and  _110
REMARK   43  A    between atoms: _109  and  _112
REMARK   44  A    between atoms: _112  and  _113
REMARK   45  A    between atoms: _116  and  _117
REMARK   46  A    between atoms: _122  and  _124
REMARK   47  A    between atoms: _124  and  _125
REMARK   48  A    between atoms: _124  and  _127
REMARK   49  A    between atoms: _129  and  _131
REMARK   50  A    between atoms: _131  and  _132
REMARK   51  A    between atoms: _131  and  _134
REMARK   52  A    between atoms: _134  and  _135
REMARK   53  A    between atoms: _138  and  _140
REMARK   54  A    between atoms: _140  and  _141
REMARK   55  A    between atoms: _140  and  _143
REMARK   56  A    between atoms: _143  and  _144
REMARK   57  A    between atoms: _147  and  _149
REMARK   58  A    between atoms: _149  and  _150
REMARK   59  A    between atoms: _149  and  _152
REMARK   60  A    between atoms: _152  and  _153
REMARK   61  A    between atoms: _153  and  _154
REMARK   62  A    between atoms: _154  and  _155
REMARK   63  A    between atoms: _165  and  _166
REMARK   64  A    between atoms: _171  and  _173
REMARK   65  A    between atoms: _173  and  _174
REMARK   66  A    between atoms: _173  and  _176
REMARK   67  A    between atoms: _176  and  _177
REMARK   68  A    between atoms: _179  and  _181
REMARK   69  A    between atoms: _181  and  _182
REMARK   70  A    between atoms: _181  and  _184
REMARK   71  A    between atoms: _184  and  _185
REMARK   72  A    between atoms: _191  and  _193
REMARK   73  A    between atoms: _193  and  _194
REMARK   74  A    between atoms: _193  and  _196
REMARK   75  A    between atoms: _196  and  _197
REMARK   76  A    between atoms: _200  and  _202
REMARK   77  A    between atoms: _202  and  _203
REMARK   78  A    between atoms: _202  and  _205
REMARK   79  A    between atoms: _205  and  _206
REMARK   80  A    between atoms: _206  and  _207
REMARK   81  A    between atoms: _209  and  _211
REMARK   82  A    between atoms: _211  and  _212
REMARK   83  A    between atoms: _214  and  _216
REMARK   84  A    between atoms: _216  and  _217
REMARK   85  A    between atoms: _219  and  _221
REMARK   86  A    between atoms: _221  and  _222
REMARK   87  A    between atoms: _221  and  _224
REMARK   88  A    between atoms: _224  and  _225
REMARK   89  A    between atoms: _227  and  _229
REMARK   90  A    between atoms: _229  and  _230
REMARK   91  A    between atoms: _232  and  _234
REMARK   92  A    between atoms: _234  and  _235
REMARK   93  A    between atoms: _237  and  _239
REMARK   94  A    between atoms: _239  and  _240
REMARK   95  A    between atoms: _242  and  _244
REMARK   96  A    between atoms: _244  and  _245
REMARK   97  A    between atoms: _244  and  _247
REMARK   98  A    between atoms: _247  and  _248
REMARK   99  A    between atoms: _251  and  _253
REMARK  100  A    between atoms: _253  and  _254
REMARK  101  A    between atoms: _253  and  _256
REMARK  102  A    between atoms: _256  and  _257
REMARK  103  A    between atoms: _262  and  _263
REMARK  104  A    between atoms: _265  and  _267
REMARK  105  A    between atoms: _267  and  _268
REMARK  106  A    between atoms: _267  and  _270
REMARK  107  A    between atoms: _270  and  _271
REMARK  108  A    between atoms: _274  and  _276
REMARK  109  A    between atoms: _276  and  _277
REMARK  110  A    between atoms: _276  and  _279
REMARK  111  A    between atoms: _279  and  _280
REMARK  112  A    between atoms: _283  and  _285
REMARK  113  A    between atoms: _285  and  _286
REMARK  114  A    between atoms: _285  and  _288
REMARK  115  A    between atoms: _288  and  _289
REMARK  116  A    between atoms: _292  and  _294
REMARK  117  A    between atoms: _294  and  _295
REMARK  118  A    between atoms: _294  and  _297
REMARK  119  A    between atoms: _297  and  _298
REMARK  120  A    between atoms: _298  and  _299
REMARK  121  A    between atoms: _302  and  _304
REMARK  122  A    between atoms: _304  and  _305
REMARK  123  A    between atoms: _304  and  _307
REMARK  124  A    between atoms: _307  and  _308
REMARK  125  A    between atoms: _310  and  _312
REMARK  126  A    between atoms: _312  and  _313
REMARK  127  A    between atoms: _312  and  _315
REMARK  128  A    between atoms: _315  and  _316
REMARK  129  A    between atoms: _319  and  _321
REMARK  130  A    between atoms: _321  and  _322
REMARK  131  A    between atoms: _321  and  _324
REMARK  132  A    between atoms: _324  and  _325
REMARK  133  A    between atoms: _328  and  _330
REMARK  134  A    between atoms: _330  and  _331
REMARK  135  A    between atoms: _333  and  _335
REMARK  136  A    between atoms: _335  and  _336
REMARK  137  A    between atoms: _335  and  _338
REMARK  138  A    between atoms: _338  and  _339
REMARK  139  A    between atoms: _349  and  _351
REMARK  140  A    between atoms: _351  and  _352
REMARK  141  A    between atoms: _351  and  _354
REMARK  142  A    between atoms: _354  and  _355
REMARK  143  A    between atoms: _355  and  _356
REMARK  144  A    between atoms: _356  and  _357
REMARK  145  A    between atoms: _357  and  _358
REMARK  146  A    between atoms: _362  and  _364
REMARK  147  A    between atoms: _364  and  _365
REMARK  148  A    between atoms: _364  and  _367
REMARK  149  A    between atoms: _367  and  _368
REMARK  150  A    between atoms: _368  and  _369
REMARK  151  A    between atoms: _372  and  _374
REMARK  152  A    between atoms: _374  and  _375
REMARK  153  A    between atoms: _374  and  _377
REMARK  154  A    between atoms: _377  and  _378
REMARK  155  A    between atoms: _383  and  _384
REMARK  156  A    between atoms: _386  and  _388
REMARK  157  A    between atoms: _388  and  _389
REMARK  158  A    between atoms: _388  and  _391
REMARK  159  A    between atoms: _391  and  _392
REMARK  160  A    between atoms: _392  and  _393
REMARK  161  A    between atoms: _396  and  _398
REMARK  162  A    between atoms: _398  and  _399
REMARK  163  A    between atoms: _398  and  _401
REMARK  164  A    between atoms: _401  and  _402
REMARK  165  A    between atoms: _407  and  _409
REMARK  166  A    between atoms: _409  and  _410
REMARK  167  A    between atoms: _409  and  _412
REMARK  168  A    between atoms: _412  and  _413
REMARK  169  A    between atoms: _416  and  _418
REMARK  170  A    between atoms: _418  and  _419
REMARK  171  A    between atoms: _422  and  _424
REMARK  172  A    between atoms: _424  and  _425
REMARK  173  A    between atoms: _424  and  _427
REMARK  174  A    between atoms: _427  and  _428
REMARK  175  A    between atoms: _428  and  _429
REMARK  176  A    between atoms: _431  and  _433
REMARK  177  A    between atoms: _433  and  _434
REMARK  178  A    between atoms: _436  and  _438
REMARK  179  A    between atoms: _438  and  _439
REMARK  180  A    between atoms: _438  and  _441
REMARK  181  A    between atoms: _441  and  _442
REMARK  182  A    between atoms: _445  and  _447
REMARK  183  A    between atoms: _447  and  _448
REMARK  184  A    between atoms: _447  and  _450
REMARK  185  A    between atoms: _450  and  _451
REMARK  186  A    between atoms: _456  and  _458
REMARK  187  A    between atoms: _458  and  _459
REMARK  188  A    between atoms: _458  and  _461
REMARK  189  A    between atoms: _461  and  _462
REMARK  190  A    between atoms: _465  and  _467
REMARK  191  A    between atoms: _467  and  _468
REMARK  192  A    between atoms: _470  and  _472
REMARK  193  A    between atoms: _472  and  _473
REMARK  194  A    between atoms: _472  and  _475
REMARK  195  A    between atoms: _475  and  _476
REMARK  196  A    between atoms: _479  and  _481
REMARK  197  A    between atoms: _481  and  _482
REMARK  198  A    between atoms: _481  and  _484
REMARK  199  A    between atoms: _484  and  _485
REMARK  200  A    between atoms: _487  and  _489
REMARK  201  A    between atoms: _489  and  _490
REMARK  202  A    between atoms: _489  and  _492
REMARK  203  A    between atoms: _492  and  _493
REMARK  204  A    between atoms: _498  and  _500
REMARK  205  A    between atoms: _500  and  _501
REMARK  206  A    between atoms: _500  and  _503
REMARK  207  A    between atoms: _503  and  _504
REMARK  208  A    between atoms: _504  and  _505
REMARK  209  A    between atoms: _510  and  _512
REMARK  210  A    between atoms: _512  and  _513
REMARK  211  A    between atoms: _512  and  _515
REMARK  212  A    between atoms: _515  and  _516
REMARK  213  A    between atoms: _522  and  _524
REMARK  214  A    between atoms: _524  and  _525
REMARK  215  A    between atoms: _528  and  _530
REMARK  216  A    between atoms: _530  and  _531
REMARK  217  A    between atoms: _530  and  _533
REMARK  218  A    between atoms: _533  and  _534
REMARK  219  A    between atoms: _537  and  _539
REMARK  220  A    between atoms: _539  and  _540
REMARK  221  A    between atoms: _539  and  _542
REMARK  222  A    between atoms: _545  and  _547
REMARK  223  A    between atoms: _547  and  _548
REMARK  224  A    between atoms: _547  and  _550
REMARK  225  A    between atoms: _550  and  _551
REMARK  226  A    between atoms: _554  and  _556
REMARK  227  A    between atoms: _566  and  _569
REMARK  228  A    between atoms: _569  and  _570
REMARK  229  A    between atoms: _570  and  _571
REMARK  230  A    between atoms: _575  and  _576
REMARK  231  A    between atoms: _579  and  _581
REMARK  232  A    between atoms: _585  and  _586
REMARK  233  A    between atoms: _591  and  _593
REMARK  234  A    between atoms: _593  and  _594
REMARK  235  A    between atoms: _593  and  _596
REMARK  236  A    between atoms: _596  and  _597
REMARK  237  A    between atoms: _597  and  _598
REMARK  238  A    between atoms: _598  and  _599
REMARK  239  A    between atoms: _608  and  _610
REMARK  240  A    between atoms: _610  and  _611
REMARK  241  A    between atoms: _610  and  _613
REMARK  242  A    between atoms: _616  and  _618
REMARK  243  A    between atoms: _618  and  _619
REMARK  244  A    between atoms: _618  and  _621
REMARK  245  A    between atoms: _621  and  _622
REMARK  246  A    between atoms: _624  and  _626
REMARK  247  A    between atoms: _626  and  _627
REMARK  248  A    between atoms: _626  and  _629
REMARK  249  A    between atoms: _629  and  _630
REMARK  250  A    between atoms: _630  and  _631
REMARK  251  A    between atoms: _631  and  _632
REMARK  252  A    between atoms: _641  and  _643
REMARK  253  A    between atoms: _643  and  _644
REMARK  254  A    between atoms: _643  and  _646
REMARK  255  A    between atoms: _646  and  _647
REMARK  256  A    between atoms: _649  and  _651
REMARK  257  A    between atoms: _651  and  _652
REMARK  258  A    between atoms: _651  and  _654
REMARK  259  A    between atoms: _654  and  _655
REMARK  260  A    between atoms: _658  and  _660
REMARK  261  A    between atoms: _660  and  _661
REMARK  262  A    between atoms: _660  and  _663
REMARK  263  A    between atoms: _663  and  _664
REMARK  264  A    between atoms: _667  and  _669
REMARK  265  A    between atoms: _669  and  _670
REMARK  266  A    between atoms: _669  and  _672
REMARK  267  A    between atoms: _672  and  _673
REMARK  268  A    between atoms: _673  and  _674
REMARK  269  A    between atoms: _679  and  _681
REMARK  270  A    between atoms: _681  and  _682
REMARK  271  A    between atoms: _681  and  _684
REMARK  272  A    between atoms: _684  and  _685
REMARK  273  A    between atoms: _685  and  _686
REMARK  274  A    between atoms: _688  and  _690
REMARK  275  A    between atoms: _690  and  _691
REMARK  276  A    between atoms: _690  and  _693
REMARK  277  A    between atoms: _693  and  _694
REMARK  278  A    between atoms: _694  and  _695
REMARK  279  A    between atoms: _695  and  _696
REMARK  280  A    between atoms: _696  and  _697
REMARK                            x       y       z     vdW  Elec       q    Type
REMARK                         _______ _______ _______ _____ _____    ______ ____
ROOT
ATOM      1  O   HOH     1      19.727  31.879  72.986  0.00  0.00    +0.000 OA
ENDROOT
TORSDOF 0
REMARK  Name = ../refined-set-2016/1bxr/1bxr_pocket.pdb
REMARK  280 active torsions:
REMARK  status: ('A' for Active; 'I' for Inactive)
REMARK    1  A    between atoms: _1  and  _3
REMARK    2  A    between atoms: _3  and  _4
REMARK    3  A    between atoms: _6  and  _8
REMARK    4  A    between atoms: _8  and  _9
REMARK    5  A    between atoms: _8  and  _11
REMARK    6  A    between atoms: _11  and  _12
REMARK    7  A    between atoms: _12  and  _13
REMARK    8  A    between atoms: _18  and  _20
REMARK    9  A    between atoms: _20  and  _21
REMARK   10  A    between atoms: _20  and  _23
REMARK   11  A    between atoms: _23  and  _24
REMARK   12  A    between atoms: _30  and  _32
REMARK   13  A    between atoms: _32  and  _33
REMARK   14  A    between atoms: _32  and  _35
REMARK   15  A    between atoms: _35  and  _36
REMARK   16  A    between atoms: _36  and  _37
REMARK   17  A    between atoms: _42  and  _44
REMARK   18  A    between atoms: _44  and  _45
REMARK   19  A    between atoms: _48  and  _50
REMARK   20  A    between atoms: _50  and  _51
REMARK   21  A    between atoms: _50  and  _53
REMARK   22  A    between atoms: _53  and  _54
REMARK   23  A    between atoms: _54  and  _55
REMARK   24  A    between atoms: _58  and  _60
REMARK   25  A    between atoms: _60  and  _61
REMARK   26  A    between atoms: _60  and  _63
REMARK   27  A    between atoms: _63  and  _64
REMARK   28  A    between atoms: _65  and  _66
REMARK   29  A    between atoms: _75  and  _77
REMARK   30  A    between atoms: _77  and  _78
REMARK   31  A    between atoms: _77  and  _80
REMARK   32  A    between atoms: _80  and  _81
REMARK   33  A    between atoms: _84  and  _86
REMARK   34  A    between atoms: _86  and  _87
REMARK   35  A    between atoms: _90  and  _92
REMARK   36  A    between atoms: _92  and  _93
REMARK   37  A    between atoms: _92  and  _95
REMARK   38  A    between atoms: _95  and  _96
REMARK   39  A    between atoms: _96  and  _97
REMARK   40  A    between atoms: _97  and  _98
REMARK   41  A    between atoms: _107  and  _109
REMARK   42  A    between atoms: _109  and  _110
REMARK   43  A    between atoms: _109  and  _112
REMARK   44  A    between atoms: _112  and  _113
REMARK   45  A    between atoms: _116  and  _117
REMARK   46  A    between atoms: _122  and  _124
REMARK   47  A    between atoms: _124  and  _125
REMARK   48  A    between atoms: _124  and  _127
REMARK   49  A    between atoms: _129  and  _131
REMARK   50  A    between atoms: _131  and  _132
REMARK   51  A    between atoms: _131  and  _134
REMARK   52  A    between atoms: _134  and  _135
REMARK   53  A    between atoms: _138  and  _140
REMARK   54  A    between atoms: _140  and  _141
REMARK   55  A    between atoms: _140  and  _143
REMARK   56  A    between atoms: _143  and  _144
REMARK   57  A    between atoms: _147  and  _149
REMARK   58  A    between atoms: _149  and  _150
REMARK   59  A    between atoms: _149  and  _152
REMARK   60  A    between atoms: _152  and  _153
REMARK   61  A    between atoms: _153  and  _154
REMARK   62  A    between atoms: _154  and  _155
REMARK   63  A    between atoms: _165  and  _166
REMARK   64  A    between atoms: _171  and  _173
REMARK   65  A    between atoms: _173  and  _174
REMARK   66  A    between atoms: _173  and  _176
REMARK   67  A    between atoms: _176  and  _177
REMARK   68  A    between atoms: _179  and  _181
REMARK   69  A    between atoms: _181  and  _182
REMARK   70  A    between atoms: _181  and  _184
REMARK   71  A    between atoms: _184  and  _185
REMARK   72  A    between atoms: _191  and  _193
REMARK   73  A    between atoms: _193  and  _194
REMARK   74  A    between atoms: _193  and  _196
REMARK   75  A    between atoms: _196  and  _197
REMARK   76  A    between atoms: _200  and  _202
REMARK   77  A    between atoms: _202  and  _203
REMARK   78  A    between atoms: _202  and  _205
REMARK   79  A    between atoms: _205  and  _206
REMARK   80  A    between atoms: _206  and  _207
REMARK   81  A    between atoms: _209  and  _211
REMARK   82  A    between atoms: _211  and  _212
REMARK   83  A    between atoms: _214  and  _216
REMARK   84  A    between atoms: _216  and  _217
REMARK   85  A    between atoms: _219  and  _221
REMARK   86  A    between atoms: _221  and  _222
REMARK   87  A    between atoms: _221  and  _224
REMARK   88  A    between atoms: _224  and  _225
REMARK   89  A    between atoms: _227  and  _229
REMARK   90  A    between atoms: _229  and  _230
REMARK   91  A    between atoms: _232  and  _234
REMARK   92  A    between atoms: _234  and  _235
REMARK   93  A    between atoms: _237  and  _239
REMARK   94  A    between atoms: _239  and  _240
REMARK   95  A    between atoms: _242  and  _244
REMARK   96  A    between atoms: _244  and  _245
REMARK   97  A    between atoms: _244  and  _247
REMARK   98  A    between atoms: _247  and  _248
REMARK   99  A    between atoms: _251  and  _253
REMARK  100  A    between atoms: _253  and  _254
REMARK  101  A    between atoms: _253  and  _256
REMARK  102  A    between atoms: _256  and  _257
REMARK  103  A    between atoms: _262  and  _263
REMARK  104  A    between atoms: _265  and  _267
REMARK  105  A    between atoms: _267  and  _268
REMARK  106  A    between atoms: _267  and  _270
REMARK  107  A    between atoms: _270  and  _271
REMARK  108  A    between atoms: _274  and  _276
REMARK  109  A    between atoms: _276  and  _277
REMARK  110  A    between atoms: _276  and  _279
REMARK  111  A    between atoms: _279  and  _280
REMARK  112  A    between atoms: _283  and  _285
REMARK  113  A    between atoms: _285  and  _286
REMARK  114  A    between atoms: _285  and  _288
REMARK  115  A    between atoms: _288  and  _289
REMARK  116  A    between atoms: _292  and  _294
REMARK  117  A    between atoms: _294  and  _295
REMARK  118  A    between atoms: _294  and  _297
REMARK  119  A    between atoms: _297  and  _298
REMARK  120  A    between atoms: _298  and  _299
REMARK  121  A    between atoms: _302  and  _304
REMARK  122  A    between atoms: _304  and  _305
REMARK  123  A    between atoms: _304  and  _307
REMARK  124  A    between atoms: _307  and  _308
REMARK  125  A    between atoms: _310  and  _312
REMARK  126  A    between atoms: _312  and  _313
REMARK  127  A    between atoms: _312  and  _315
REMARK  128  A    between atoms: _315  and  _316
REMARK  129  A    between atoms: _319  and  _321
REMARK  130  A    between atoms: _321  and  _322
REMARK  131  A    between atoms: _321  and  _324
REMARK  132  A    between atoms: _324  and  _325
REMARK  133  A    between atoms: _328  and  _330
REMARK  134  A    between atoms: _330  and  _331
REMARK  135  A    between atoms: _333  and  _335
REMARK  136  A    between atoms: _335  and  _336
REMARK  137  A    between atoms: _335  and  _338
REMARK  138  A    between atoms: _338  and  _339
REMARK  139  A    between atoms: _349  and  _351
REMARK  140  A    between atoms: _351  and  _352
REMARK  141  A    between atoms: _351  and  _354
REMARK  142  A    between atoms: _354  and  _355
REMARK  143  A    between atoms: _355  and  _356
REMARK  144  A    between atoms: _356  and  _357
REMARK  145  A    between atoms: _357  and  _358
REMARK  146  A    between atoms: _362  and  _364
REMARK  147  A    between atoms: _364  and  _365
REMARK  148  A    between atoms: _364  and  _367
REMARK  149  A    between atoms: _367  and  _368
REMARK  150  A    between atoms: _368  and  _369
REMARK  151  A    between atoms: _372  and  _374
REMARK  152  A    between atoms: _374  and  _375
REMARK  153  A    between atoms: _374  and  _377
REMARK  154  A    between atoms: _377  and  _378
REMARK  155  A    between atoms: _383  and  _384
REMARK  156  A    between atoms: _386  and  _388
REMARK  157  A    between atoms: _388  and  _389
REMARK  158  A    between atoms: _388  and  _391
REMARK  159  A    between atoms: _391  and  _392
REMARK  160  A    between atoms: _392  and  _393
REMARK  161  A    between atoms: _396  and  _398
REMARK  162  A    between atoms: _398  and  _399
REMARK  163  A    between atoms: _398  and  _401
REMARK  164  A    between atoms: _401  and  _402
REMARK  165  A    between atoms: _407  and  _409
REMARK  166  A    between atoms: _409  and  _410
REMARK  167  A    between atoms: _409  and  _412
REMARK  168  A    between atoms: _412  and  _413
REMARK  169  A    between atoms: _416  and  _418
REMARK  170  A    between atoms: _418  and  _419
REMARK  171  A    between atoms: _422  and  _424
REMARK  172  A    between atoms: _424  and  _425
REMARK  173  A    between atoms: _424  and  _427
REMARK  174  A    between atoms: _427  and  _428
REMARK  175  A    between atoms: _428  and  _429
REMARK  176  A    between atoms: _431  and  _433
REMARK  177  A    between atoms: _433  and  _434
REMARK  178  A    between atoms: _436  and  _438
REMARK  179  A    between atoms: _438  and  _439
REMARK  180  A    between atoms: _438  and  _441
REMARK  181  A    between atoms: _441  and  _442
REMARK  182  A    between atoms: _445  and  _447
REMARK  183  A    between atoms: _447  and  _448
REMARK  184  A    between atoms: _447  and  _450
REMARK  185  A    between atoms: _450  and  _451
REMARK  186  A    between atoms: _456  and  _458
REMARK  187  A    between atoms: _458  and  _459
REMARK  188  A    between atoms: _458  and  _461
REMARK  189  A    between atoms: _461  and  _462
REMARK  190  A    between atoms: _465  and  _467
REMARK  191  A    between atoms: _467  and  _468
REMARK  192  A    between atoms: _470  and  _472
REMARK  193  A    between atoms: _472  and  _473
REMARK  194  A    between atoms: _472  and  _475
REMARK  195  A    between atoms: _475  and  _476
REMARK  196  A    between atoms: _479  and  _481
REMARK  197  A    between atoms: _481  and  _482
REMARK  198  A    between atoms: _481  and  _484
REMARK  199  A    between atoms: _484  and  _485
REMARK  200  A    between atoms: _487  and  _489
REMARK  201  A    between atoms: _489  and  _490
REMARK  202  A    between atoms: _489  and  _492
REMARK  203  A    between atoms: _492  and  _493
REMARK  204  A    between atoms: _498  and  _500
REMARK  205  A    between atoms: _500  and  _501
REMARK  206  A    between atoms: _500  and  _503
REMARK  207  A    between atoms: _503  and  _504
REMARK  208  A    between atoms: _504  and  _505
REMARK  209  A    between atoms: _510  and  _512
REMARK  210  A    between atoms: _512  and  _513
REMARK  211  A    between atoms: _512  and  _515
REMARK  212  A    between atoms: _515  and  _516
REMARK  213  A    between atoms: _522  and  _524
REMARK  214  A    between atoms: _524  and  _525
REMARK  215  A    between atoms: _528  and  _530
REMARK  216  A    between atoms: _530  and  _531
REMARK  217  A    between atoms: _530  and  _533
REMARK  218  A    between atoms: _533  and  _534
REMARK  219  A    between atoms: _537  and  _539
REMARK  220  A    between atoms: _539  and  _540
REMARK  221  A    between atoms: _539  and  _542
REMARK  222  A    between atoms: _545  and  _547
REMARK  223  A    between atoms: _547  and  _548
REMARK  224  A    between atoms: _547  and  _550
REMARK  225  A    between atoms: _550  and  _551
REMARK  226  A    between atoms: _554  and  _556
REMARK  227  A    between atoms: _566  and  _569
REMARK  228  A    between atoms: _569  and  _570
REMARK  229  A    between atoms: _570  and  _571
REMARK  230  A    between atoms: _575  and  _576
REMARK  231  A    between atoms: _579  and  _581
REMARK  232  A    between atoms: _585  and  _586
REMARK  233  A    between atoms: _591  and  _593
REMARK  234  A    between atoms: _593  and  _594
REMARK  235  A    between atoms: _593  and  _596
REMARK  236  A    between atoms: _596  and  _597
REMARK  237  A    between atoms: _597  and  _598
REMARK  238  A    between atoms: _598  and  _599
REMARK  239  A    between atoms: _608  and  _610
REMARK  240  A    between atoms: _610  and  _611
REMARK  241  A    between atoms: _610  and  _613
REMARK  242  A    between atoms: _616  and  _618
REMARK  243  A    between atoms: _618  and  _619
REMARK  244  A    between atoms: _618  and  _621
REMARK  245  A    between atoms: _621  and  _622
REMARK  246  A    between atoms: _624  and  _626
REMARK  247  A    between atoms: _626  and  _627
REMARK  248  A    between atoms: _626  and  _629
REMARK  249  A    between atoms: _629  and  _630
REMARK  250  A    between atoms: _630  and  _631
REMARK  251  A    between atoms: _631  and  _632
REMARK  252  A    between atoms: _641  and  _643
REMARK  253  A    between atoms: _643  and  _644
REMARK  254  A    between atoms: _643  and  _646
REMARK  255  A    between atoms: _646  and  _647
REMARK  256  A    between atoms: _649  and  _651
REMARK  257  A    between atoms: _651  and  _652
REMARK  258  A    between atoms: _651  and  _654
REMARK  259  A    between atoms: _654  and  _655
REMARK  260  A    between atoms: _658  and  _660
REMARK  261  A    between atoms: _660  and  _661
REMARK  262  A    between atoms: _660  and  _663
REMARK  263  A    between atoms: _663  and  _664
REMARK  264  A    between atoms: _667  and  _669
REMARK  265  A    between atoms: _669  and  _670
REMARK  266  A    between atoms: _669  and  _672
REMARK  267  A    between atoms: _672  and  _673
REMARK  268  A    between atoms: _673  and  _674
REMARK  269  A    between atoms: _679  and  _681
REMARK  270  A    between atoms: _681  and  _682
REMARK  271  A    between atoms: _681  and  _684
REMARK  272  A    between atoms: _684  and  _685
REMARK  273  A    between atoms: _685  and  _686
REMARK  274  A    between atoms: _688  and  _690
REMARK  275  A    between atoms: _690  and  _691
REMARK  276  A    between atoms: _690  and  _693
REMARK  277  A    between atoms: _693  and  _694
REMARK  278  A    between atoms: _694  and  _695
REMARK  279  A    between atoms: _695  and  _696
REMARK  280  A    between atoms: _696  and  _697
REMARK                            x       y       z     vdW  Elec       q    Type
REMARK                         _______ _______ _______ _____ _____    ______ ____
ROOT
ATOM      1  O   HOH     1      16.072  27.041  68.618  0.00  0.00    +0.000 OA
ENDROOT
TORSDOF 0
