REMARK  Name = ../refined-set-2016/3dx4/3dx4_pocket.pdb
REMARK  132 active torsions:
REMARK  status: ('A' for Active; 'I' for Inactive)
REMARK    1  A    between atoms: _1  and  _3
REMARK    2  A    between atoms: _14  and  _17
REMARK    3  A    between atoms: _17  and  _18
REMARK    4  A    between atoms: _25  and  _26
REMARK    5  A    between atoms: _33  and  _34
REMARK    6  A    between atoms: _39  and  _41
REMARK    7  A    between atoms: _41  and  _42
REMARK    8  A    between atoms: _44  and  _46
REMARK    9  A    between atoms: _46  and  _47
REMARK   10  A    between atoms: _46  and  _49
REMARK   11  A    between atoms: _49  and  _50
REMARK   12  A    between atoms: _60  and  _62
REMARK   13  A    between atoms: _62  and  _63
REMARK   14  A    between atoms: _62  and  _65
REMARK   15  A    between atoms: _65  and  _66
REMARK   16  A    between atoms: _69  and  _71
REMARK   17  A    between atoms: _71  and  _72
REMARK   18  A    between atoms: _71  and  _74
REMARK   19  A    between atoms: _74  and  _75
REMARK   20  A    between atoms: _80  and  _81
REMARK   21  A    between atoms: _83  and  _85
REMARK   22  A    between atoms: _85  and  _86
REMARK   23  A    between atoms: _85  and  _88
REMARK   24  A    between atoms: _88  and  _89
REMARK   25  A    between atoms: _89  and  _90
REMARK   26  A    between atoms: _93  and  _95
REMARK   27  A    between atoms: _95  and  _96
REMARK   28  A    between atoms: _95  and  _98
REMARK   29  A    between atoms: _98  and  _99
REMARK   30  A    between atoms: _99  and  _100
REMARK   31  A    between atoms: _102  and  _104
REMARK   32  A    between atoms: _104  and  _105
REMARK   33  A    between atoms: _104  and  _107
REMARK   34  A    between atoms: _107  and  _108
REMARK   35  A    between atoms: _111  and  _113
REMARK   36  A    between atoms: _113  and  _114
REMARK   37  A    between atoms: _113  and  _116
REMARK   38  A    between atoms: _116  and  _117
REMARK   39  A    between atoms: _117  and  _119
REMARK   40  A    between atoms: _119  and  ZN_362
REMARK   41  A    between atoms: _121  and  _122
REMARK   42  A    between atoms: _127  and  _129
REMARK   43  A    between atoms: _129  and  _130
REMARK   44  A    between atoms: _129  and  _132
REMARK   45  A    between atoms: _132  and  _133
REMARK   46  A    between atoms: _139  and  _141
REMARK   47  A    between atoms: _141  and  _142
REMARK   48  A    between atoms: _141  and  _144
REMARK   49  A    between atoms: _144  and  _145
REMARK   50  A    between atoms: _145  and  _146
REMARK   51  A    between atoms: _146  and  _147
REMARK   52  A    between atoms: _156  and  _158
REMARK   53  A    between atoms: _158  and  _159
REMARK   54  A    between atoms: _158  and  _161
REMARK   55  A    between atoms: _161  and  _162
REMARK   56  A    between atoms: _164  and  _166
REMARK   57  A    between atoms: _166  and  _167
REMARK   58  A    between atoms: _166  and  _169
REMARK   59  A    between atoms: _169  and  _170
REMARK   60  A    between atoms: _175  and  _176
REMARK   61  A    between atoms: _178  and  _180
REMARK   62  A    between atoms: _180  and  _181
REMARK   63  A    between atoms: _180  and  _183
REMARK   64  A    between atoms: _183  and  _184
REMARK   65  A    between atoms: _187  and  _189
REMARK   66  A    between atoms: _189  and  _190
REMARK   67  A    between atoms: _189  and  _192
REMARK   68  A    between atoms: _192  and  _193
REMARK   69  A    between atoms: _196  and  _198
REMARK   70  A    between atoms: _198  and  _199
REMARK   71  A    between atoms: _198  and  _201
REMARK   72  A    between atoms: _201  and  _202
REMARK   73  A    between atoms: _208  and  _210
REMARK   74  A    between atoms: _210  and  _211
REMARK   75  A    between atoms: _210  and  _213
REMARK   76  A    between atoms: _213  and  _214
REMARK   77  A    between atoms: _219  and  _220
REMARK   78  A    between atoms: _222  and  _224
REMARK   79  A    between atoms: _224  and  _225
REMARK   80  A    between atoms: _224  and  _227
REMARK   81  A    between atoms: _227  and  _228
REMARK   82  A    between atoms: _231  and  _233
REMARK   83  A    between atoms: _233  and  _234
REMARK   84  A    between atoms: _233  and  _236
REMARK   85  A    between atoms: _236  and  _237
REMARK   86  A    between atoms: _247  and  _249
REMARK   87  A    between atoms: _249  and  _250
REMARK   88  A    between atoms: _249  and  _252
REMARK   89  A    between atoms: _252  and  _253
REMARK   90  A    between atoms: _258  and  _260
REMARK   91  A    between atoms: _260  and  _261
REMARK   92  A    between atoms: _260  and  _263
REMARK   93  A    between atoms: _263  and  _264
REMARK   94  A    between atoms: _268  and  ZN_362
REMARK   95  A    between atoms: _269  and  _271
REMARK   96  A    between atoms: _271  and  _272
REMARK   97  A    between atoms: _271  and  _274
REMARK   98  A    between atoms: _274  and  _275
REMARK   99  A    between atoms: _278  and  _280
REMARK  100  A    between atoms: _280  and  _281
REMARK  101  A    between atoms: _283  and  _285
REMARK  102  A    between atoms: _285  and  _286
REMARK  103  A    between atoms: _285  and  _288
REMARK  104  A    between atoms: _288  and  _289
REMARK  105  A    between atoms: _292  and  _294
REMARK  106  A    between atoms: _294  and  _295
REMARK  107  A    between atoms: _294  and  _297
REMARK  108  A    between atoms: _297  and  _298
REMARK  109  A    between atoms: _301  and  _303
REMARK  110  A    between atoms: _303  and  _304
REMARK  111  A    between atoms: _307  and  _309
REMARK  112  A    between atoms: _309  and  _310
REMARK  113  A    between atoms: _309  and  _312
REMARK  114  A    between atoms: _312  and  _313
REMARK  115  A    between atoms: _318  and  _319
REMARK  116  A    between atoms: _321  and  _323
REMARK  117  A    between atoms: _323  and  _324
REMARK  118  A    between atoms: _323  and  _326
REMARK  119  A    between atoms: _326  and  _327
REMARK  120  A    between atoms: _327  and  _328
REMARK  121  A    between atoms: _331  and  _333
REMARK  122  A    between atoms: _333  and  _334
REMARK  123  A    between atoms: _333  and  _336
REMARK  124  A    between atoms: _336  and  _337
REMARK  125  A    between atoms: _337  and  _338
REMARK  126  A    between atoms: _338  and  _339
REMARK  127  A    between atoms: _348  and  _350
REMARK  128  A    between atoms: _350  and  _351
REMARK  129  A    between atoms: _353  and  _355
REMARK  130  A    between atoms: _355  and  _356
REMARK  131  A    between atoms: _355  and  _358
REMARK  132  A    between atoms: _358  and  _359
REMARK                            x       y       z     vdW  Elec       q    Type
REMARK                         _______ _______ _______ _____ _____    ______ ____
ROOT
ATOM      1  C   UNK A   1      36.784  61.393  13.396  0.00  0.00    +0.000 C 
ATOM      2  C   UNK A   1      37.441  62.774  13.313  0.00  0.00    +0.000 C 
ATOM      3  O   UNK A   1      36.880  63.746  13.816  0.00  0.00    +0.000 OA
ATOM      4  N   UNK A   2      38.632  62.839  12.701  0.00  0.00    +0.000 N 
ATOM      5  C   UNK A   2      39.412  64.059  12.654  0.00  0.00    +0.000 C 
ATOM      6  C   UNK A   2      39.609  64.536  11.220  0.00  0.00    +0.000 C 
ATOM      7  N   UNK A   3      38.870  65.549  10.839  0.00  0.00    +0.000 N 
ATOM      8  H   UNK A   3      38.198  65.967  11.514  0.00  0.00    +0.000 HD
ATOM      9  C   UNK A   3      38.964  66.106   9.497  0.00  0.00    +0.000 C 
ATOM     10  C   UNK A   3      37.789  67.037   9.290  0.00  0.00    +0.000 C 
ATOM     11  C   UNK A   3      36.506  66.295   9.306  0.00  0.00    +0.000 C 
ATOM     12  O   UNK A   3      35.707  66.579  10.210  0.00  0.00    +0.000 OA
ATOM     13  O   UNK A   3      36.292  65.421   8.455  0.00  0.00    +0.000 OA
ATOM     14 ZN   UNK A   1      34.550  64.192   7.978  0.00  0.00    +0.000 Zn
ATOM     15  N   UNK A   1      35.153  62.728   9.341  0.00  0.00    +0.000 N 
ATOM     16  C   UNK A   1      34.901  62.865  10.680  0.00  0.00    +0.000 A 
ATOM     17  C   UNK A   1      35.412  61.776  11.299  0.00  0.00    +0.000 A 
ATOM     18  N   UNK A   1      35.934  60.966  10.306  0.00  0.00    +0.000 NA
ATOM     19  C   UNK A   1      35.766  61.577   9.136  0.00  0.00    +0.000 A 
ATOM     20  O   UNK A   2      40.451  64.011  10.473  0.00  0.00    +0.000 OA
ATOM     21  H   UNK A   2      39.009  61.984  12.244  0.00  0.00    +0.000 HD
ATOM     22  C   UNK A   1      35.397  61.387  12.746  0.00  0.00    +0.000 C 
ENDROOT
BRANCH   9  23
ATOM     23  C   UNK A   3      40.216  66.936   9.308  0.00  0.00    +0.000 C 
ATOM     24  O   UNK A   3      40.389  67.900  10.039  0.00  0.00    +0.000 OA
ATOM     25  N   GLY A   4      41.046  66.602   8.313  0.00  0.00    +0.000 N 
ATOM     26  CA  GLY A   4      42.190  67.468   7.924  0.00  0.00    +0.000 C 
ATOM     27  CB  GLY A   4      43.059  66.530   7.067  0.00  0.00    +0.000 C 
ATOM     28  CG  GLY A   4      42.538  65.105   7.360  0.00  0.00    +0.000 C 
ATOM     29  CD  GLY A   4      41.066  65.324   7.568  0.00  0.00    +0.000 C 
BRANCH  26  30
ATOM     30  C   GLY A   4      41.747  68.727   7.161  0.00  0.00    +0.000 C 
ATOM     31  N   GLY A   5      40.990  69.558   7.880  0.00  0.00    +0.000 N 
ATOM     32  H   GLY A   5      40.835  69.331   8.883  0.00  0.00    +0.000 HD
ATOM     33  O   GLY A   4      42.082  68.921   5.986  0.00  0.00    +0.000 OA
BRANCH  31  34
ATOM     34  CA  GLY A   5      40.371  70.755   7.353  0.00  0.00    +0.000 C 
BRANCH  34  35
ATOM     35  C   GLY A   5      38.876  70.519   7.129  0.00  0.00    +0.000 C 
ATOM     36  N   TRP A   6      38.071  71.497   7.554  0.00  0.00    +0.000 N 
ATOM     37  H   TRP A   6      38.480  72.275   8.110  0.00  0.00    +0.000 HD
ATOM     38  O   GLY A   5      38.464  69.459   6.583  0.00  0.00    +0.000 OA
BRANCH  36  39
ATOM     39  CA  TRP A   6      36.638  71.515   7.268  0.00  0.00    +0.000 C 
BRANCH  39  40
ATOM     40  C   TRP A   6      36.133  72.901   7.686  0.00  0.00    +0.000 C 
ATOM     41  N   ILE A   7      35.816  73.050   8.971  0.00  0.00    +0.000 N 
ATOM     42  H   ILE A   7      35.853  72.223   9.600  0.00  0.00    +0.000 HD
ATOM     43  O   TRP A   6      36.120  73.824   6.888  0.00  0.00    +0.000 OA
BRANCH  41  44
ATOM     44  CA  ILE A   7      35.412  74.360   9.528  0.00  0.00    +0.000 C 
BRANCH  44  45
ATOM     45  C   ILE A   7      36.621  75.138  10.003  0.00  0.00    +0.000 C 
ATOM     46  O   ILE A   7      36.549  76.356  10.180  0.00  0.00    +0.000 OA
ENDBRANCH  44  45
BRANCH  44  47
ATOM     47  CB  ILE A   7      34.447  74.205  10.772  0.00  0.00    +0.000 C 
ATOM     48  CG2 ILE A   7      34.284  75.534  11.559  0.00  0.00    +0.000 C 
BRANCH  47  49
ATOM     49  CG1 ILE A   7      33.109  73.593  10.419  0.00  0.00    +0.000 C 
ATOM     50  CD1 ILE A   7      32.639  73.953   9.118  0.00  0.00    +0.000 C 
ENDBRANCH  47  49
ENDBRANCH  44  47
ENDBRANCH  41  44
ENDBRANCH  39  40
BRANCH  39  51
ATOM     51  CB  TRP A   6      35.846  70.379   7.953  0.00  0.00    +0.000 C 
BRANCH  51  52
ATOM     52  CG  TRP A   6      34.361  70.508   7.636  0.00  0.00    +0.000 A 
ATOM     53  CD2 TRP A   6      33.272  70.302   8.528  0.00  0.00    +0.000 A 
ATOM     54  CE3 TRP A   6      33.189  69.932   9.882  0.00  0.00    +0.000 A 
ATOM     55  CZ3 TRP A   6      31.892  69.785  10.441  0.00  0.00    +0.000 A 
ATOM     56  CH2 TRP A   6      30.748  70.035   9.686  0.00  0.00    +0.000 A 
ATOM     57  CZ2 TRP A   6      30.802  70.404   8.377  0.00  0.00    +0.000 A 
ATOM     58  CE2 TRP A   6      32.082  70.545   7.797  0.00  0.00    +0.000 A 
ATOM     59  NE1 TRP A   6      32.427  70.901   6.518  0.00  0.00    +0.000 N 
ATOM     60  HE1 TRP A   6      31.771  71.164   5.755  0.00  0.00    +0.000 HD
ATOM     61  CD1 TRP A   6      33.805  70.847   6.427  0.00  0.00    +0.000 A 
ENDBRANCH  51  52
ENDBRANCH  39  51
ENDBRANCH  36  39
ENDBRANCH  34  35
ENDBRANCH  31  34
ENDBRANCH  26  30
ENDBRANCH   9  23
BRANCH  14  62
ATOM     62  N   UNK A   1      35.388  63.509   6.180  0.00  0.00    +0.000 N 
ATOM     63  C   UNK A   1      36.404  62.696   5.967  0.00  0.00    +0.000 A 
ATOM     64  N   UNK A   1      36.566  62.552   4.656  0.00  0.00    +0.000 NA
ATOM     65  C   UNK A   1      35.613  63.294   3.988  0.00  0.00    +0.000 A 
ATOM     66  C   UNK A   1      34.875  63.909   4.959  0.00  0.00    +0.000 A 
BRANCH  65  67
ATOM     67  C   UNK A   1      35.536  63.379   2.492  0.00  0.00    +0.000 C 
BRANCH  67  68
ATOM     68  C   UNK A   1      36.385  64.521   1.889  0.00  0.00    +0.000 C 
BRANCH  68  69
ATOM     69  N   UNK A   1      37.793  64.379   2.233  0.00  0.00    +0.000 N 
ATOM     70  H   UNK A   1      38.058  63.789   3.048  0.00  0.00    +0.000 HD
ATOM     71  C   UNK A   1      38.751  64.984   1.533  0.00  0.00    +0.000 C 
ATOM     72  O   UNK A   1      38.517  65.734   0.597  0.00  0.00    +0.000 OA
BRANCH  71  73
ATOM     73  C   UNK A   1      40.164  64.708   2.013  0.00  0.00    +0.000 C 
BRANCH  73  74
ATOM     74  N   UNK A   1      41.118  64.770   0.909  0.00  0.00    +0.000 NA
ATOM     75  H   UNK A   1      41.998  65.312   1.025  0.00  0.00    +0.000 HD
ENDBRANCH  73  74
BRANCH  73  76
ATOM     76  C   UNK A   1      40.610  65.744   3.063  0.00  0.00    +0.000 C 
BRANCH  76  77
ATOM     77  C   UNK A   1      39.612  65.973   4.147  0.00  0.00    +0.000 A 
ATOM     78  N   UNK A   1      39.010  64.924   4.837  0.00  0.00    +0.000 NA
ATOM     79  C   UNK A   1      38.169  65.447   5.724  0.00  0.00    +0.000 A 
ATOM     80  N   UNK A   1      38.190  66.766   5.609  0.00  0.00    +0.000 NA
ATOM     81  C   UNK A   1      39.078  67.118   4.625  0.00  0.00    +0.000 A 
ENDBRANCH  76  77
ENDBRANCH  73  76
ENDBRANCH  71  73
ENDBRANCH  68  69
BRANCH  68  82
ATOM     82  C   UNK A   1      35.759  65.895   2.206  0.00  0.00    +0.000 C 
ATOM     83  N   UNK A   3      36.568  66.881   2.657  0.00  0.00    +0.000 N 
ATOM     84  H   UNK A   3      37.507  66.641   3.035  0.00  0.00    +0.000 HD
ATOM     85  O   UNK A   1      34.560  66.076   1.949  0.00  0.00    +0.000 OA
BRANCH  83  86
ATOM     86  C   UNK A   3      36.140  68.286   2.620  0.00  0.00    +0.000 C 
BRANCH  86  87
ATOM     87  C   UNK A   3      37.104  69.123   1.809  0.00  0.00    +0.000 C 
ATOM     88  O   UNK A   3      36.993  70.357   1.839  0.00  0.00    +0.000 OA
ATOM     89  N   GLY A   4      38.018  68.486   1.081  0.00  0.00    +0.000 N 
ATOM     90  H   GLY A   4      38.044  67.446   1.087  0.00  0.00    +0.000 HD
BRANCH  89  91
ATOM     91  CA  GLY A   4      38.983  69.222   0.276  0.00  0.00    +0.000 C 
BRANCH  91  92
ATOM     92  C   GLY A   4      38.440  69.299  -1.130  0.00  0.00    +0.000 C 
ATOM     93  O   GLY A   4      37.707  70.235  -1.478  0.00  0.00    +0.000 OA
ENDBRANCH  91  92
ENDBRANCH  89  91
ENDBRANCH  86  87
BRANCH  86  94
ATOM     94  C   UNK A   3      35.973  68.904   4.012  0.00  0.00    +0.000 C 
BRANCH  94  95
ATOM     95  C   UNK A   3      34.990  68.117   4.840  0.00  0.00    +0.000 C 
ATOM     96  O   UNK A   3      35.416  67.503   5.832  0.00  0.00    +0.000 OA
ATOM     97  O   UNK A   3      33.784  68.130   4.451  0.00  0.00    +0.000 OA
ENDBRANCH  94  95
ENDBRANCH  86  94
ENDBRANCH  83  86
ENDBRANCH  68  82
ENDBRANCH  67  68
ENDBRANCH  65  67
ENDBRANCH  14  62
BRANCH   1  98
ATOM     98  N   UNK A   1      36.698  60.973  14.792  0.00  0.00    +0.000 NA
ATOM     99  H   UNK A   1      35.820  61.132  15.326  0.00  0.00    +0.000 HD
ENDBRANCH   1  98
BRANCH   5 100
ATOM    100  C   UNK A   2      40.788  63.827  13.268  0.00  0.00    +0.000 C 
BRANCH 100 101
ATOM    101  C   UNK A   2      40.741  63.805  14.782  0.00  0.00    +0.000 C 
ATOM    102  O   UNK A   2      41.305  64.664  15.453  0.00  0.00    +0.000 OA
ATOM    103  N   UNK A   2      40.081  62.814  15.325  0.00  0.00    +0.000 N 
ATOM    104  H   UNK A   2      40.021  62.734  16.360  0.00  0.00    +0.000 HD
ATOM    105  H   UNK A   2      39.616  62.106  14.721  0.00  0.00    +0.000 HD
ENDBRANCH 100 101
ENDBRANCH   5 100
BRANCH  14 106
ATOM    106  O   UNK A   1      32.641  63.313   7.757  0.00  0.00    +0.000 OA
BRANCH 106 107
ATOM    107  C   UNK A   1      32.134  62.222   7.419  0.00  0.00    +0.000 C 
ATOM    108  O   UNK A   1      30.886  62.081   7.468  0.00  0.00    +0.000 OA
BRANCH 107 109
ATOM    109  C   UNK A   1      33.043  61.043   7.052  0.00  0.00    +0.000 C 
BRANCH 109 110
ATOM    110  C   UNK A   1      32.345  59.955   6.245  0.00  0.00    +0.000 C 
BRANCH 110 111
ATOM    111  C   UNK A   1      32.251  60.368   4.755  0.00  0.00    +0.000 C 
ATOM    112  O   UNK A   1      31.537  61.328   4.469  0.00  0.00    +0.000 OA
ATOM    113  N   UNK A   3      32.981  59.724   3.805  0.00  0.00    +0.000 N 
ATOM    114  C   UNK A   3      33.939  58.594   3.870  0.00  0.00    +0.000 C 
ATOM    115  C   UNK A   3      34.767  58.761   2.570  0.00  0.00    +0.000 C 
ATOM    116  C   UNK A   3      33.691  59.232   1.586  0.00  0.00    +0.000 C 
ATOM    117  C   UNK A   3      32.797  60.193   2.423  0.00  0.00    +0.000 C 
BRANCH 117 118
ATOM    118  C   UNK A   3      31.340  60.122   1.992  0.00  0.00    +0.000 C 
ATOM    119  O   UNK A   3      30.584  59.250   2.449  0.00  0.00    +0.000 OA
ATOM    120  N   GLY A   4      30.935  61.032   1.101  0.00  0.00    +0.000 N 
ATOM    121  H   GLY A   4      31.628  61.607   0.581  0.00  0.00    +0.000 HD
BRANCH 120 122
ATOM    122  CA  GLY A   4      29.481  61.208   0.866  0.00  0.00    +0.000 C 
BRANCH 122 123
ATOM    123  C   GLY A   4      29.024  60.318  -0.293  0.00  0.00    +0.000 C 
ATOM    124  O   GLY A   4      28.815  60.743  -1.419  0.00  0.00    +0.000 OA
ENDBRANCH 122 123
BRANCH 122 125
ATOM    125  CB  GLY A   4      29.176  62.681   0.603  0.00  0.00    +0.000 C 
BRANCH 125 126
ATOM    126  CG  GLY A   4      30.026  63.645   1.411  0.00  0.00    +0.000 A 
ATOM    127  CD2 GLY A   4      30.275  63.418   2.767  0.00  0.00    +0.000 A 
ATOM    128  CE2 GLY A   4      31.074  64.299   3.491  0.00  0.00    +0.000 A 
ATOM    129  CZ  GLY A   4      31.616  65.412   2.858  0.00  0.00    +0.000 A 
ATOM    130  CE1 GLY A   4      31.404  65.630   1.515  0.00  0.00    +0.000 A 
ATOM    131  CD1 GLY A   4      30.587  64.758   0.790  0.00  0.00    +0.000 A 
ENDBRANCH 125 126
ENDBRANCH 122 125
ENDBRANCH 120 122
ENDBRANCH 117 118
ENDBRANCH 110 111
BRANCH 110 132
ATOM    132  N   UNK A   1      32.864  58.640   6.583  0.00  0.00    +0.000 N 
ATOM    133  C   UNK A   1      32.099  57.777   7.262  0.00  0.00    +0.000 C 
ATOM    134  O   UNK A   1      30.903  57.990   7.487  0.00  0.00    +0.000 OA
ATOM    135  H   UNK A   1      33.827  58.371   6.298  0.00  0.00    +0.000 HD
BRANCH 133 136
ATOM    136  C   UNK A   1      32.753  56.507   7.774  0.00  0.00    +0.000 C 
BRANCH 136 137
ATOM    137  N   UNK A   1      34.069  56.201   7.158  0.00  0.00    +0.000 NA
ATOM    138  H   UNK A   1      34.941  56.558   7.598  0.00  0.00    +0.000 HD
ENDBRANCH 136 137
BRANCH 136 139
ATOM    139  C   UNK A   1      32.847  56.537   9.309  0.00  0.00    +0.000 C 
ATOM    140  C   UNK A   1      33.085  55.095   9.800  0.00  0.00    +0.000 C 
BRANCH 139 141
ATOM    141  C   UNK A   1      33.973  57.478   9.812  0.00  0.00    +0.000 C 
ATOM    142  C   UNK A   1      33.889  57.811  11.286  0.00  0.00    +0.000 C 
ENDBRANCH 139 141
ENDBRANCH 136 139
ENDBRANCH 133 136
ENDBRANCH 110 132
ENDBRANCH 109 110
ENDBRANCH 107 109
ENDBRANCH 106 107
ENDBRANCH  14 106
TORSDOF 45
REMARK  Name = ../refined-set-2016/3dx4/3dx4_pocket.pdb
REMARK  132 active torsions:
REMARK  status: ('A' for Active; 'I' for Inactive)
REMARK    1  A    between atoms: _1  and  _3
REMARK    2  A    between atoms: _14  and  _17
REMARK    3  A    between atoms: _17  and  _18
REMARK    4  A    between atoms: _25  and  _26
REMARK    5  A    between atoms: _33  and  _34
REMARK    6  A    between atoms: _39  and  _41
REMARK    7  A    between atoms: _41  and  _42
REMARK    8  A    between atoms: _44  and  _46
REMARK    9  A    between atoms: _46  and  _47
REMARK   10  A    between atoms: _46  and  _49
REMARK   11  A    between atoms: _49  and  _50
REMARK   12  A    between atoms: _60  and  _62
REMARK   13  A    between atoms: _62  and  _63
REMARK   14  A    between atoms: _62  and  _65
REMARK   15  A    between atoms: _65  and  _66
REMARK   16  A    between atoms: _69  and  _71
REMARK   17  A    between atoms: _71  and  _72
REMARK   18  A    between atoms: _71  and  _74
REMARK   19  A    between atoms: _74  and  _75
REMARK   20  A    between atoms: _80  and  _81
REMARK   21  A    between atoms: _83  and  _85
REMARK   22  A    between atoms: _85  and  _86
REMARK   23  A    between atoms: _85  and  _88
REMARK   24  A    between atoms: _88  and  _89
REMARK   25  A    between atoms: _89  and  _90
REMARK   26  A    between atoms: _93  and  _95
REMARK   27  A    between atoms: _95  and  _96
REMARK   28  A    between atoms: _95  and  _98
REMARK   29  A    between atoms: _98  and  _99
REMARK   30  A    between atoms: _99  and  _100
REMARK   31  A    between atoms: _102  and  _104
REMARK   32  A    between atoms: _104  and  _105
REMARK   33  A    between atoms: _104  and  _107
REMARK   34  A    between atoms: _107  and  _108
REMARK   35  A    between atoms: _111  and  _113
REMARK   36  A    between atoms: _113  and  _114
REMARK   37  A    between atoms: _113  and  _116
REMARK   38  A    between atoms: _116  and  _117
REMARK   39  A    between atoms: _117  and  _119
REMARK   40  A    between atoms: _119  and  ZN_362
REMARK   41  A    between atoms: _121  and  _122
REMARK   42  A    between atoms: _127  and  _129
REMARK   43  A    between atoms: _129  and  _130
REMARK   44  A    between atoms: _129  and  _132
REMARK   45  A    between atoms: _132  and  _133
REMARK   46  A    between atoms: _139  and  _141
REMARK   47  A    between atoms: _141  and  _142
REMARK   48  A    between atoms: _141  and  _144
REMARK   49  A    between atoms: _144  and  _145
REMARK   50  A    between atoms: _145  and  _146
REMARK   51  A    between atoms: _146  and  _147
REMARK   52  A    between atoms: _156  and  _158
REMARK   53  A    between atoms: _158  and  _159
REMARK   54  A    between atoms: _158  and  _161
REMARK   55  A    between atoms: _161  and  _162
REMARK   56  A    between atoms: _164  and  _166
REMARK   57  A    between atoms: _166  and  _167
REMARK   58  A    between atoms: _166  and  _169
REMARK   59  A    between atoms: _169  and  _170
REMARK   60  A    between atoms: _175  and  _176
REMARK   61  A    between atoms: _178  and  _180
REMARK   62  A    between atoms: _180  and  _181
REMARK   63  A    between atoms: _180  and  _183
REMARK   64  A    between atoms: _183  and  _184
REMARK   65  A    between atoms: _187  and  _189
REMARK   66  A    between atoms: _189  and  _190
REMARK   67  A    between atoms: _189  and  _192
REMARK   68  A    between atoms: _192  and  _193
REMARK   69  A    between atoms: _196  and  _198
REMARK   70  A    between atoms: _198  and  _199
REMARK   71  A    between atoms: _198  and  _201
REMARK   72  A    between atoms: _201  and  _202
REMARK   73  A    between atoms: _208  and  _210
REMARK   74  A    between atoms: _210  and  _211
REMARK   75  A    between atoms: _210  and  _213
REMARK   76  A    between atoms: _213  and  _214
REMARK   77  A    between atoms: _219  and  _220
REMARK   78  A    between atoms: _222  and  _224
REMARK   79  A    between atoms: _224  and  _225
REMARK   80  A    between atoms: _224  and  _227
REMARK   81  A    between atoms: _227  and  _228
REMARK   82  A    between atoms: _231  and  _233
REMARK   83  A    between atoms: _233  and  _234
REMARK   84  A    between atoms: _233  and  _236
REMARK   85  A    between atoms: _236  and  _237
REMARK   86  A    between atoms: _247  and  _249
REMARK   87  A    between atoms: _249  and  _250
REMARK   88  A    between atoms: _249  and  _252
REMARK   89  A    between atoms: _252  and  _253
REMARK   90  A    between atoms: _258  and  _260
REMARK   91  A    between atoms: _260  and  _261
REMARK   92  A    between atoms: _260  and  _263
REMARK   93  A    between atoms: _263  and  _264
REMARK   94  A    between atoms: _268  and  ZN_362
REMARK   95  A    between atoms: _269  and  _271
REMARK   96  A    between atoms: _271  and  _272
REMARK   97  A    between atoms: _271  and  _274
REMARK   98  A    between atoms: _274  and  _275
REMARK   99  A    between atoms: _278  and  _280
REMARK  100  A    between atoms: _280  and  _281
REMARK  101  A    between atoms: _283  and  _285
REMARK  102  A    between atoms: _285  and  _286
REMARK  103  A    between atoms: _285  and  _288
REMARK  104  A    between atoms: _288  and  _289
REMARK  105  A    between atoms: _292  and  _294
REMARK  106  A    between atoms: _294  and  _295
REMARK  107  A    between atoms: _294  and  _297
REMARK  108  A    between atoms: _297  and  _298
REMARK  109  A    between atoms: _301  and  _303
REMARK  110  A    between atoms: _303  and  _304
REMARK  111  A    between atoms: _307  and  _309
REMARK  112  A    between atoms: _309  and  _310
REMARK  113  A    between atoms: _309  and  _312
REMARK  114  A    between atoms: _312  and  _313
REMARK  115  A    between atoms: _318  and  _319
REMARK  116  A    between atoms: _321  and  _323
REMARK  117  A    between atoms: _323  and  _324
REMARK  118  A    between atoms: _323  and  _326
REMARK  119  A    between atoms: _326  and  _327
REMARK  120  A    between atoms: _327  and  _328
REMARK  121  A    between atoms: _331  and  _333
REMARK  122  A    between atoms: _333  and  _334
REMARK  123  A    between atoms: _333  and  _336
REMARK  124  A    between atoms: _336  and  _337
REMARK  125  A    between atoms: _337  and  _338
REMARK  126  A    between atoms: _338  and  _339
REMARK  127  A    between atoms: _348  and  _350
REMARK  128  A    between atoms: _350  and  _351
REMARK  129  A    between atoms: _353  and  _355
REMARK  130  A    between atoms: _355  and  _356
REMARK  131  A    between atoms: _355  and  _358
REMARK  132  A    between atoms: _358  and  _359
REMARK                            x       y       z     vdW  Elec       q    Type
REMARK                         _______ _______ _______ _____ _____    ______ ____
ROOT
ATOM      1  CG  TYR A   1      40.290  70.941  12.779  0.00  0.00    -0.020 A 
ATOM      2  CD2 TYR A   1      39.253  71.177  13.686  0.00  0.00    -0.001 A 
ATOM      3  CE2 TYR A   1      37.932  71.317  13.230  0.00  0.00    +0.036 A 
ATOM      4  CZ  TYR A   1      37.639  71.168  11.882  0.00  0.00    +0.134 A 
ATOM      5  CE1 TYR A   1      38.656  70.938  10.993  0.00  0.00    +0.036 A 
ATOM      6  CD1 TYR A   1      39.962  70.846  11.429  0.00  0.00    -0.001 A 
ENDROOT
BRANCH   4   7
ATOM      7  OH  TYR A   1      36.368  71.261  11.383  0.00  0.00    -0.506 OA
ATOM      8  HH  TYR A   1      35.735  71.427  12.125  0.00  0.00    +0.292 HD
ENDBRANCH   4   7
BRANCH   1   9
ATOM      9  CB  TYR A   1      41.698  70.725  13.228  0.00  0.00    +0.051 C 
BRANCH   9  10
ATOM     10  CA  TYR A   1      42.312  71.730  14.193  0.00  0.00    +0.137 C 
BRANCH  10  11
ATOM     11  N   TYR A   1      42.839  72.905  13.482  0.00  0.00    -0.239 NA
ATOM     12  H   TYR A   1      42.799  72.961  12.444  0.00  0.00    +0.142 HD
ENDBRANCH  10  11
BRANCH  10  13
ATOM     13  C   TYR A   1      43.418  71.002  14.953  0.00  0.00    +0.224 C 
ATOM     14  O   TYR A   1      43.200  70.479  16.056  0.00  0.00    -0.287 OA
ENDBRANCH  10  13
ENDBRANCH   9  10
ENDBRANCH   1   9
TORSDOF 5
REMARK  Name = ../refined-set-2016/3dx4/3dx4_pocket.pdb
REMARK  132 active torsions:
REMARK  status: ('A' for Active; 'I' for Inactive)
REMARK    1  A    between atoms: _1  and  _3
REMARK    2  A    between atoms: _14  and  _17
REMARK    3  A    between atoms: _17  and  _18
REMARK    4  A    between atoms: _25  and  _26
REMARK    5  A    between atoms: _33  and  _34
REMARK    6  A    between atoms: _39  and  _41
REMARK    7  A    between atoms: _41  and  _42
REMARK    8  A    between atoms: _44  and  _46
REMARK    9  A    between atoms: _46  and  _47
REMARK   10  A    between atoms: _46  and  _49
REMARK   11  A    between atoms: _49  and  _50
REMARK   12  A    between atoms: _60  and  _62
REMARK   13  A    between atoms: _62  and  _63
REMARK   14  A    between atoms: _62  and  _65
REMARK   15  A    between atoms: _65  and  _66
REMARK   16  A    between atoms: _69  and  _71
REMARK   17  A    between atoms: _71  and  _72
REMARK   18  A    between atoms: _71  and  _74
REMARK   19  A    between atoms: _74  and  _75
REMARK   20  A    between atoms: _80  and  _81
REMARK   21  A    between atoms: _83  and  _85
REMARK   22  A    between atoms: _85  and  _86
REMARK   23  A    between atoms: _85  and  _88
REMARK   24  A    between atoms: _88  and  _89
REMARK   25  A    between atoms: _89  and  _90
REMARK   26  A    between atoms: _93  and  _95
REMARK   27  A    between atoms: _95  and  _96
REMARK   28  A    between atoms: _95  and  _98
REMARK   29  A    between atoms: _98  and  _99
REMARK   30  A    between atoms: _99  and  _100
REMARK   31  A    between atoms: _102  and  _104
REMARK   32  A    between atoms: _104  and  _105
REMARK   33  A    between atoms: _104  and  _107
REMARK   34  A    between atoms: _107  and  _108
REMARK   35  A    between atoms: _111  and  _113
REMARK   36  A    between atoms: _113  and  _114
REMARK   37  A    between atoms: _113  and  _116
REMARK   38  A    between atoms: _116  and  _117
REMARK   39  A    between atoms: _117  and  _119
REMARK   40  A    between atoms: _119  and  ZN_362
REMARK   41  A    between atoms: _121  and  _122
REMARK   42  A    between atoms: _127  and  _129
REMARK   43  A    between atoms: _129  and  _130
REMARK   44  A    between atoms: _129  and  _132
REMARK   45  A    between atoms: _132  and  _133
REMARK   46  A    between atoms: _139  and  _141
REMARK   47  A    between atoms: _141  and  _142
REMARK   48  A    between atoms: _141  and  _144
REMARK   49  A    between atoms: _144  and  _145
REMARK   50  A    between atoms: _145  and  _146
REMARK   51  A    between atoms: _146  and  _147
REMARK   52  A    between atoms: _156  and  _158
REMARK   53  A    between atoms: _158  and  _159
REMARK   54  A    between atoms: _158  and  _161
REMARK   55  A    between atoms: _161  and  _162
REMARK   56  A    between atoms: _164  and  _166
REMARK   57  A    between atoms: _166  and  _167
REMARK   58  A    between atoms: _166  and  _169
REMARK   59  A    between atoms: _169  and  _170
REMARK   60  A    between atoms: _175  and  _176
REMARK   61  A    between atoms: _178  and  _180
REMARK   62  A    between atoms: _180  and  _181
REMARK   63  A    between atoms: _180  and  _183
REMARK   64  A    between atoms: _183  and  _184
REMARK   65  A    between atoms: _187  and  _189
REMARK   66  A    between atoms: _189  and  _190
REMARK   67  A    between atoms: _189  and  _192
REMARK   68  A    between atoms: _192  and  _193
REMARK   69  A    between atoms: _196  and  _198
REMARK   70  A    between atoms: _198  and  _199
REMARK   71  A    between atoms: _198  and  _201
REMARK   72  A    between atoms: _201  and  _202
REMARK   73  A    between atoms: _208  and  _210
REMARK   74  A    between atoms: _210  and  _211
REMARK   75  A    between atoms: _210  and  _213
REMARK   76  A    between atoms: _213  and  _214
REMARK   77  A    between atoms: _219  and  _220
REMARK   78  A    between atoms: _222  and  _224
REMARK   79  A    between atoms: _224  and  _225
REMARK   80  A    between atoms: _224  and  _227
REMARK   81  A    between atoms: _227  and  _228
REMARK   82  A    between atoms: _231  and  _233
REMARK   83  A    between atoms: _233  and  _234
REMARK   84  A    between atoms: _233  and  _236
REMARK   85  A    between atoms: _236  and  _237
REMARK   86  A    between atoms: _247  and  _249
REMARK   87  A    between atoms: _249  and  _250
REMARK   88  A    between atoms: _249  and  _252
REMARK   89  A    between atoms: _252  and  _253
REMARK   90  A    between atoms: _258  and  _260
REMARK   91  A    between atoms: _260  and  _261
REMARK   92  A    between atoms: _260  and  _263
REMARK   93  A    between atoms: _263  and  _264
REMARK   94  A    between atoms: _268  and  ZN_362
REMARK   95  A    between atoms: _269  and  _271
REMARK   96  A    between atoms: _271  and  _272
REMARK   97  A    between atoms: _271  and  _274
REMARK   98  A    between atoms: _274  and  _275
REMARK   99  A    between atoms: _278  and  _280
REMARK  100  A    between atoms: _280  and  _281
REMARK  101  A    between atoms: _283  and  _285
REMARK  102  A    between atoms: _285  and  _286
REMARK  103  A    between atoms: _285  and  _288
REMARK  104  A    between atoms: _288  and  _289
REMARK  105  A    between atoms: _292  and  _294
REMARK  106  A    between atoms: _294  and  _295
REMARK  107  A    between atoms: _294  and  _297
REMARK  108  A    between atoms: _297  and  _298
REMARK  109  A    between atoms: _301  and  _303
REMARK  110  A    between atoms: _303  and  _304
REMARK  111  A    between atoms: _307  and  _309
REMARK  112  A    between atoms: _309  and  _310
REMARK  113  A    between atoms: _309  and  _312
REMARK  114  A    between atoms: _312  and  _313
REMARK  115  A    between atoms: _318  and  _319
REMARK  116  A    between atoms: _321  and  _323
REMARK  117  A    between atoms: _323  and  _324
REMARK  118  A    between atoms: _323  and  _326
REMARK  119  A    between atoms: _326  and  _327
REMARK  120  A    between atoms: _327  and  _328
REMARK  121  A    between atoms: _331  and  _333
REMARK  122  A    between atoms: _333  and  _334
REMARK  123  A    between atoms: _333  and  _336
REMARK  124  A    between atoms: _336  and  _337
REMARK  125  A    between atoms: _337  and  _338
REMARK  126  A    between atoms: _338  and  _339
REMARK  127  A    between atoms: _348  and  _350
REMARK  128  A    between atoms: _350  and  _351
REMARK  129  A    between atoms: _353  and  _355
REMARK  130  A    between atoms: _355  and  _356
REMARK  131  A    between atoms: _355  and  _358
REMARK  132  A    between atoms: _358  and  _359
REMARK                            x       y       z     vdW  Elec       q    Type
REMARK                         _______ _______ _______ _____ _____    ______ ____
ROOT
ATOM      1  CA  GLU A   1      44.129  60.112   9.337  0.00  0.00    +0.134 C 
ENDROOT
BRANCH   1   2
ATOM      2  N   GLU A   1      43.529  59.038  10.168  0.00  0.00    -0.239 NA
ATOM      3  H   GLU A   1      43.175  59.264  11.119  0.00  0.00    +0.142 HD
ENDBRANCH   1   2
BRANCH   1   4
ATOM      4  C   GLU A   1      45.605  60.265   9.660  0.00  0.00    +0.224 C 
ATOM      5  O   GLU A   1      45.998  60.850  10.693  0.00  0.00    -0.287 OA
ENDBRANCH   1   4
BRANCH   1   6
ATOM      6  CB  GLU A   1      43.405  61.418   9.604  0.00  0.00    +0.037 C 
BRANCH   6   7
ATOM      7  CG  GLU A   1      41.886  61.330   9.327  0.00  0.00    +0.116 C 
BRANCH   7   8
ATOM      8  CD  GLU A   1      41.034  60.903  10.488  0.00  0.00    +0.365 C 
ATOM      9  OE2 GLU A   1      41.586  60.636  11.589  0.00  0.00    -0.246 OA
ATOM     10  OE1 GLU A   1      39.781  60.864  10.332  0.00  0.00    -0.246 OA
ENDBRANCH   7   8
ENDBRANCH   6   7
ENDBRANCH   1   6
TORSDOF 5
REMARK  Name = ../refined-set-2016/3dx4/3dx4_pocket.pdb
REMARK  132 active torsions:
REMARK  status: ('A' for Active; 'I' for Inactive)
REMARK    1  A    between atoms: _1  and  _3
REMARK    2  A    between atoms: _14  and  _17
REMARK    3  A    between atoms: _17  and  _18
REMARK    4  A    between atoms: _25  and  _26
REMARK    5  A    between atoms: _33  and  _34
REMARK    6  A    between atoms: _39  and  _41
REMARK    7  A    between atoms: _41  and  _42
REMARK    8  A    between atoms: _44  and  _46
REMARK    9  A    between atoms: _46  and  _47
REMARK   10  A    between atoms: _46  and  _49
REMARK   11  A    between atoms: _49  and  _50
REMARK   12  A    between atoms: _60  and  _62
REMARK   13  A    between atoms: _62  and  _63
REMARK   14  A    between atoms: _62  and  _65
REMARK   15  A    between atoms: _65  and  _66
REMARK   16  A    between atoms: _69  and  _71
REMARK   17  A    between atoms: _71  and  _72
REMARK   18  A    between atoms: _71  and  _74
REMARK   19  A    between atoms: _74  and  _75
REMARK   20  A    between atoms: _80  and  _81
REMARK   21  A    between atoms: _83  and  _85
REMARK   22  A    between atoms: _85  and  _86
REMARK   23  A    between atoms: _85  and  _88
REMARK   24  A    between atoms: _88  and  _89
REMARK   25  A    between atoms: _89  and  _90
REMARK   26  A    between atoms: _93  and  _95
REMARK   27  A    between atoms: _95  and  _96
REMARK   28  A    between atoms: _95  and  _98
REMARK   29  A    between atoms: _98  and  _99
REMARK   30  A    between atoms: _99  and  _100
REMARK   31  A    between atoms: _102  and  _104
REMARK   32  A    between atoms: _104  and  _105
REMARK   33  A    between atoms: _104  and  _107
REMARK   34  A    between atoms: _107  and  _108
REMARK   35  A    between atoms: _111  and  _113
REMARK   36  A    between atoms: _113  and  _114
REMARK   37  A    between atoms: _113  and  _116
REMARK   38  A    between atoms: _116  and  _117
REMARK   39  A    between atoms: _117  and  _119
REMARK   40  A    between atoms: _119  and  ZN_362
REMARK   41  A    between atoms: _121  and  _122
REMARK   42  A    between atoms: _127  and  _129
REMARK   43  A    between atoms: _129  and  _130
REMARK   44  A    between atoms: _129  and  _132
REMARK   45  A    between atoms: _132  and  _133
REMARK   46  A    between atoms: _139  and  _141
REMARK   47  A    between atoms: _141  and  _142
REMARK   48  A    between atoms: _141  and  _144
REMARK   49  A    between atoms: _144  and  _145
REMARK   50  A    between atoms: _145  and  _146
REMARK   51  A    between atoms: _146  and  _147
REMARK   52  A    between atoms: _156  and  _158
REMARK   53  A    between atoms: _158  and  _159
REMARK   54  A    between atoms: _158  and  _161
REMARK   55  A    between atoms: _161  and  _162
REMARK   56  A    between atoms: _164  and  _166
REMARK   57  A    between atoms: _166  and  _167
REMARK   58  A    between atoms: _166  and  _169
REMARK   59  A    between atoms: _169  and  _170
REMARK   60  A    between atoms: _175  and  _176
REMARK   61  A    between atoms: _178  and  _180
REMARK   62  A    between atoms: _180  and  _181
REMARK   63  A    between atoms: _180  and  _183
REMARK   64  A    between atoms: _183  and  _184
REMARK   65  A    between atoms: _187  and  _189
REMARK   66  A    between atoms: _189  and  _190
REMARK   67  A    between atoms: _189  and  _192
REMARK   68  A    between atoms: _192  and  _193
REMARK   69  A    between atoms: _196  and  _198
REMARK   70  A    between atoms: _198  and  _199
REMARK   71  A    between atoms: _198  and  _201
REMARK   72  A    between atoms: _201  and  _202
REMARK   73  A    between atoms: _208  and  _210
REMARK   74  A    between atoms: _210  and  _211
REMARK   75  A    between atoms: _210  and  _213
REMARK   76  A    between atoms: _213  and  _214
REMARK   77  A    between atoms: _219  and  _220
REMARK   78  A    between atoms: _222  and  _224
REMARK   79  A    between atoms: _224  and  _225
REMARK   80  A    between atoms: _224  and  _227
REMARK   81  A    between atoms: _227  and  _228
REMARK   82  A    between atoms: _231  and  _233
REMARK   83  A    between atoms: _233  and  _234
REMARK   84  A    between atoms: _233  and  _236
REMARK   85  A    between atoms: _236  and  _237
REMARK   86  A    between atoms: _247  and  _249
REMARK   87  A    between atoms: _249  and  _250
REMARK   88  A    between atoms: _249  and  _252
REMARK   89  A    between atoms: _252  and  _253
REMARK   90  A    between atoms: _258  and  _260
REMARK   91  A    between atoms: _260  and  _261
REMARK   92  A    between atoms: _260  and  _263
REMARK   93  A    between atoms: _263  and  _264
REMARK   94  A    between atoms: _268  and  ZN_362
REMARK   95  A    between atoms: _269  and  _271
REMARK   96  A    between atoms: _271  and  _272
REMARK   97  A    between atoms: _271  and  _274
REMARK   98  A    between atoms: _274  and  _275
REMARK   99  A    between atoms: _278  and  _280
REMARK  100  A    between atoms: _280  and  _281
REMARK  101  A    between atoms: _283  and  _285
REMARK  102  A    between atoms: _285  and  _286
REMARK  103  A    between atoms: _285  and  _288
REMARK  104  A    between atoms: _288  and  _289
REMARK  105  A    between atoms: _292  and  _294
REMARK  106  A    between atoms: _294  and  _295
REMARK  107  A    between atoms: _294  and  _297
REMARK  108  A    between atoms: _297  and  _298
REMARK  109  A    between atoms: _301  and  _303
REMARK  110  A    between atoms: _303  and  _304
REMARK  111  A    between atoms: _307  and  _309
REMARK  112  A    between atoms: _309  and  _310
REMARK  113  A    between atoms: _309  and  _312
REMARK  114  A    between atoms: _312  and  _313
REMARK  115  A    between atoms: _318  and  _319
REMARK  116  A    between atoms: _321  and  _323
REMARK  117  A    between atoms: _323  and  _324
REMARK  118  A    between atoms: _323  and  _326
REMARK  119  A    between atoms: _326  and  _327
REMARK  120  A    between atoms: _327  and  _328
REMARK  121  A    between atoms: _331  and  _333
REMARK  122  A    between atoms: _333  and  _334
REMARK  123  A    between atoms: _333  and  _336
REMARK  124  A    between atoms: _336  and  _337
REMARK  125  A    between atoms: _337  and  _338
REMARK  126  A    between atoms: _338  and  _339
REMARK  127  A    between atoms: _348  and  _350
REMARK  128  A    between atoms: _350  and  _351
REMARK  129  A    between atoms: _353  and  _355
REMARK  130  A    between atoms: _355  and  _356
REMARK  131  A    between atoms: _355  and  _358
REMARK  132  A    between atoms: _358  and  _359
REMARK                            x       y       z     vdW  Elec       q    Type
REMARK                         _______ _______ _______ _____ _____    ______ ____
ROOT
ATOM      1  CA  MET A   1      39.965  59.560   4.455  0.00  0.00    +0.134 C 
ENDROOT
BRANCH   1   2
ATOM      2  N   MET A   1      41.083  60.437   4.843  0.00  0.00    -0.239 NA
ATOM      3  H   MET A   1      40.875  61.333   5.329  0.00  0.00    +0.142 HD
ENDBRANCH   1   2
BRANCH   1   4
ATOM      4  C   MET A   1      39.363  60.248   3.227  0.00  0.00    +0.224 C 
ATOM      5  O   MET A   1      38.633  61.220   3.357  0.00  0.00    -0.287 OA
ENDBRANCH   1   4
BRANCH   1   6
ATOM      6  CB  MET A   1      38.979  59.497   5.620  0.00  0.00    +0.037 C 
BRANCH   6   7
ATOM      7  CG  MET A   1      37.669  58.730   5.298  0.00  0.00    +0.059 C 
BRANCH   7   8
ATOM      8  SD  MET A   1      36.512  58.828   6.697  0.00  0.00    -0.139 S 
ATOM      9  CE  MET A   1      37.514  58.062   8.024  0.00  0.00    +0.069 C 
ENDBRANCH   7   8
ENDBRANCH   6   7
ENDBRANCH   1   6
TORSDOF 5
REMARK  Name = ../refined-set-2016/3dx4/3dx4_pocket.pdb
REMARK  132 active torsions:
REMARK  status: ('A' for Active; 'I' for Inactive)
REMARK    1  A    between atoms: _1  and  _3
REMARK    2  A    between atoms: _14  and  _17
REMARK    3  A    between atoms: _17  and  _18
REMARK    4  A    between atoms: _25  and  _26
REMARK    5  A    between atoms: _33  and  _34
REMARK    6  A    between atoms: _39  and  _41
REMARK    7  A    between atoms: _41  and  _42
REMARK    8  A    between atoms: _44  and  _46
REMARK    9  A    between atoms: _46  and  _47
REMARK   10  A    between atoms: _46  and  _49
REMARK   11  A    between atoms: _49  and  _50
REMARK   12  A    between atoms: _60  and  _62
REMARK   13  A    between atoms: _62  and  _63
REMARK   14  A    between atoms: _62  and  _65
REMARK   15  A    between atoms: _65  and  _66
REMARK   16  A    between atoms: _69  and  _71
REMARK   17  A    between atoms: _71  and  _72
REMARK   18  A    between atoms: _71  and  _74
REMARK   19  A    between atoms: _74  and  _75
REMARK   20  A    between atoms: _80  and  _81
REMARK   21  A    between atoms: _83  and  _85
REMARK   22  A    between atoms: _85  and  _86
REMARK   23  A    between atoms: _85  and  _88
REMARK   24  A    between atoms: _88  and  _89
REMARK   25  A    between atoms: _89  and  _90
REMARK   26  A    between atoms: _93  and  _95
REMARK   27  A    between atoms: _95  and  _96
REMARK   28  A    between atoms: _95  and  _98
REMARK   29  A    between atoms: _98  and  _99
REMARK   30  A    between atoms: _99  and  _100
REMARK   31  A    between atoms: _102  and  _104
REMARK   32  A    between atoms: _104  and  _105
REMARK   33  A    between atoms: _104  and  _107
REMARK   34  A    between atoms: _107  and  _108
REMARK   35  A    between atoms: _111  and  _113
REMARK   36  A    between atoms: _113  and  _114
REMARK   37  A    between atoms: _113  and  _116
REMARK   38  A    between atoms: _116  and  _117
REMARK   39  A    between atoms: _117  and  _119
REMARK   40  A    between atoms: _119  and  ZN_362
REMARK   41  A    between atoms: _121  and  _122
REMARK   42  A    between atoms: _127  and  _129
REMARK   43  A    between atoms: _129  and  _130
REMARK   44  A    between atoms: _129  and  _132
REMARK   45  A    between atoms: _132  and  _133
REMARK   46  A    between atoms: _139  and  _141
REMARK   47  A    between atoms: _141  and  _142
REMARK   48  A    between atoms: _141  and  _144
REMARK   49  A    between atoms: _144  and  _145
REMARK   50  A    between atoms: _145  and  _146
REMARK   51  A    between atoms: _146  and  _147
REMARK   52  A    between atoms: _156  and  _158
REMARK   53  A    between atoms: _158  and  _159
REMARK   54  A    between atoms: _158  and  _161
REMARK   55  A    between atoms: _161  and  _162
REMARK   56  A    between atoms: _164  and  _166
REMARK   57  A    between atoms: _166  and  _167
REMARK   58  A    between atoms: _166  and  _169
REMARK   59  A    between atoms: _169  and  _170
REMARK   60  A    between atoms: _175  and  _176
REMARK   61  A    between atoms: _178  and  _180
REMARK   62  A    between atoms: _180  and  _181
REMARK   63  A    between atoms: _180  and  _183
REMARK   64  A    between atoms: _183  and  _184
REMARK   65  A    between atoms: _187  and  _189
REMARK   66  A    between atoms: _189  and  _190
REMARK   67  A    between atoms: _189  and  _192
REMARK   68  A    between atoms: _192  and  _193
REMARK   69  A    between atoms: _196  and  _198
REMARK   70  A    between atoms: _198  and  _199
REMARK   71  A    between atoms: _198  and  _201
REMARK   72  A    between atoms: _201  and  _202
REMARK   73  A    between atoms: _208  and  _210
REMARK   74  A    between atoms: _210  and  _211
REMARK   75  A    between atoms: _210  and  _213
REMARK   76  A    between atoms: _213  and  _214
REMARK   77  A    between atoms: _219  and  _220
REMARK   78  A    between atoms: _222  and  _224
REMARK   79  A    between atoms: _224  and  _225
REMARK   80  A    between atoms: _224  and  _227
REMARK   81  A    between atoms: _227  and  _228
REMARK   82  A    between atoms: _231  and  _233
REMARK   83  A    between atoms: _233  and  _234
REMARK   84  A    between atoms: _233  and  _236
REMARK   85  A    between atoms: _236  and  _237
REMARK   86  A    between atoms: _247  and  _249
REMARK   87  A    between atoms: _249  and  _250
REMARK   88  A    between atoms: _249  and  _252
REMARK   89  A    between atoms: _252  and  _253
REMARK   90  A    between atoms: _258  and  _260
REMARK   91  A    between atoms: _260  and  _261
REMARK   92  A    between atoms: _260  and  _263
REMARK   93  A    between atoms: _263  and  _264
REMARK   94  A    between atoms: _268  and  ZN_362
REMARK   95  A    between atoms: _269  and  _271
REMARK   96  A    between atoms: _271  and  _272
REMARK   97  A    between atoms: _271  and  _274
REMARK   98  A    between atoms: _274  and  _275
REMARK   99  A    between atoms: _278  and  _280
REMARK  100  A    between atoms: _280  and  _281
REMARK  101  A    between atoms: _283  and  _285
REMARK  102  A    between atoms: _285  and  _286
REMARK  103  A    between atoms: _285  and  _288
REMARK  104  A    between atoms: _288  and  _289
REMARK  105  A    between atoms: _292  and  _294
REMARK  106  A    between atoms: _294  and  _295
REMARK  107  A    between atoms: _294  and  _297
REMARK  108  A    between atoms: _297  and  _298
REMARK  109  A    between atoms: _301  and  _303
REMARK  110  A    between atoms: _303  and  _304
REMARK  111  A    between atoms: _307  and  _309
REMARK  112  A    between atoms: _309  and  _310
REMARK  113  A    between atoms: _309  and  _312
REMARK  114  A    between atoms: _312  and  _313
REMARK  115  A    between atoms: _318  and  _319
REMARK  116  A    between atoms: _321  and  _323
REMARK  117  A    between atoms: _323  and  _324
REMARK  118  A    between atoms: _323  and  _326
REMARK  119  A    between atoms: _326  and  _327
REMARK  120  A    between atoms: _327  and  _328
REMARK  121  A    between atoms: _331  and  _333
REMARK  122  A    between atoms: _333  and  _334
REMARK  123  A    between atoms: _333  and  _336
REMARK  124  A    between atoms: _336  and  _337
REMARK  125  A    between atoms: _337  and  _338
REMARK  126  A    between atoms: _338  and  _339
REMARK  127  A    between atoms: _348  and  _350
REMARK  128  A    between atoms: _350  and  _351
REMARK  129  A    between atoms: _353  and  _355
REMARK  130  A    between atoms: _355  and  _356
REMARK  131  A    between atoms: _355  and  _358
REMARK  132  A    between atoms: _358  and  _359
REMARK                            x       y       z     vdW  Elec       q    Type
REMARK                         _______ _______ _______ _____ _____    ______ ____
ROOT
ATOM      1  NE  ARG A   1      28.686  61.323   5.887  0.00  0.00    -0.265 N 
ATOM      2  CZ  ARG A   1      27.797  62.048   6.563  0.00  0.00    +0.342 C 
ATOM      3  NH2 ARG A   1      28.203  62.838   7.542  0.00  0.00    -0.292 N 
ATOM      4 HH21 ARG A   1      27.512  63.406   8.072  0.00  0.00    +0.255 HD
ATOM      5 HH22 ARG A   1      29.214  62.892   7.782  0.00  0.00    +0.255 HD
ATOM      6  NH1 ARG A   1      26.507  61.968   6.281  0.00  0.00    -0.292 N 
ATOM      7 HH11 ARG A   1      25.821  62.539   6.816  0.00  0.00    +0.255 HD
ATOM      8 HH12 ARG A   1      26.178  61.334   5.525  0.00  0.00    +0.255 HD
ATOM      9  HE  ARG A   1      29.674  61.355   6.211  0.00  0.00    +0.259 HD
ENDROOT
BRANCH   1  10
ATOM     10  CD  ARG A   1      28.387  60.487   4.728  0.00  0.00    +0.174 C 
BRANCH  10  11
ATOM     11  CG  ARG A   1      28.045  59.022   5.022  0.00  0.00    +0.045 C 
BRANCH  11  12
ATOM     12  CB  ARG A   1      27.847  58.295   3.739  0.00  0.00    +0.029 C 
BRANCH  12  13
ATOM     13  CA  ARG A   1      27.233  56.911   3.940  0.00  0.00    +0.133 C 
BRANCH  13  14
ATOM     14  N   ARG A   1      28.212  55.989   4.494  0.00  0.00    -0.239 NA
ATOM     15  H   ARG A   1      29.224  56.103   4.285  0.00  0.00    +0.142 HD
ENDBRANCH  13  14
BRANCH  13  16
ATOM     16  C   ARG A   1      26.724  56.373   2.643  0.00  0.00    +0.224 C 
ATOM     17  O   ARG A   1      27.273  56.630   1.562  0.00  0.00    -0.287 OA
ENDBRANCH  13  16
ENDBRANCH  12  13
ENDBRANCH  11  12
ENDBRANCH  10  11
ENDBRANCH   1  10
TORSDOF 6
REMARK  Name = ../refined-set-2016/3dx4/3dx4_pocket.pdb
REMARK  132 active torsions:
REMARK  status: ('A' for Active; 'I' for Inactive)
REMARK    1  A    between atoms: _1  and  _3
REMARK    2  A    between atoms: _14  and  _17
REMARK    3  A    between atoms: _17  and  _18
REMARK    4  A    between atoms: _25  and  _26
REMARK    5  A    between atoms: _33  and  _34
REMARK    6  A    between atoms: _39  and  _41
REMARK    7  A    between atoms: _41  and  _42
REMARK    8  A    between atoms: _44  and  _46
REMARK    9  A    between atoms: _46  and  _47
REMARK   10  A    between atoms: _46  and  _49
REMARK   11  A    between atoms: _49  and  _50
REMARK   12  A    between atoms: _60  and  _62
REMARK   13  A    between atoms: _62  and  _63
REMARK   14  A    between atoms: _62  and  _65
REMARK   15  A    between atoms: _65  and  _66
REMARK   16  A    between atoms: _69  and  _71
REMARK   17  A    between atoms: _71  and  _72
REMARK   18  A    between atoms: _71  and  _74
REMARK   19  A    between atoms: _74  and  _75
REMARK   20  A    between atoms: _80  and  _81
REMARK   21  A    between atoms: _83  and  _85
REMARK   22  A    between atoms: _85  and  _86
REMARK   23  A    between atoms: _85  and  _88
REMARK   24  A    between atoms: _88  and  _89
REMARK   25  A    between atoms: _89  and  _90
REMARK   26  A    between atoms: _93  and  _95
REMARK   27  A    between atoms: _95  and  _96
REMARK   28  A    between atoms: _95  and  _98
REMARK   29  A    between atoms: _98  and  _99
REMARK   30  A    between atoms: _99  and  _100
REMARK   31  A    between atoms: _102  and  _104
REMARK   32  A    between atoms: _104  and  _105
REMARK   33  A    between atoms: _104  and  _107
REMARK   34  A    between atoms: _107  and  _108
REMARK   35  A    between atoms: _111  and  _113
REMARK   36  A    between atoms: _113  and  _114
REMARK   37  A    between atoms: _113  and  _116
REMARK   38  A    between atoms: _116  and  _117
REMARK   39  A    between atoms: _117  and  _119
REMARK   40  A    between atoms: _119  and  ZN_362
REMARK   41  A    between atoms: _121  and  _122
REMARK   42  A    between atoms: _127  and  _129
REMARK   43  A    between atoms: _129  and  _130
REMARK   44  A    between atoms: _129  and  _132
REMARK   45  A    between atoms: _132  and  _133
REMARK   46  A    between atoms: _139  and  _141
REMARK   47  A    between atoms: _141  and  _142
REMARK   48  A    between atoms: _141  and  _144
REMARK   49  A    between atoms: _144  and  _145
REMARK   50  A    between atoms: _145  and  _146
REMARK   51  A    between atoms: _146  and  _147
REMARK   52  A    between atoms: _156  and  _158
REMARK   53  A    between atoms: _158  and  _159
REMARK   54  A    between atoms: _158  and  _161
REMARK   55  A    between atoms: _161  and  _162
REMARK   56  A    between atoms: _164  and  _166
REMARK   57  A    between atoms: _166  and  _167
REMARK   58  A    between atoms: _166  and  _169
REMARK   59  A    between atoms: _169  and  _170
REMARK   60  A    between atoms: _175  and  _176
REMARK   61  A    between atoms: _178  and  _180
REMARK   62  A    between atoms: _180  and  _181
REMARK   63  A    between atoms: _180  and  _183
REMARK   64  A    between atoms: _183  and  _184
REMARK   65  A    between atoms: _187  and  _189
REMARK   66  A    between atoms: _189  and  _190
REMARK   67  A    between atoms: _189  and  _192
REMARK   68  A    between atoms: _192  and  _193
REMARK   69  A    between atoms: _196  and  _198
REMARK   70  A    between atoms: _198  and  _199
REMARK   71  A    between atoms: _198  and  _201
REMARK   72  A    between atoms: _201  and  _202
REMARK   73  A    between atoms: _208  and  _210
REMARK   74  A    between atoms: _210  and  _211
REMARK   75  A    between atoms: _210  and  _213
REMARK   76  A    between atoms: _213  and  _214
REMARK   77  A    between atoms: _219  and  _220
REMARK   78  A    between atoms: _222  and  _224
REMARK   79  A    between atoms: _224  and  _225
REMARK   80  A    between atoms: _224  and  _227
REMARK   81  A    between atoms: _227  and  _228
REMARK   82  A    between atoms: _231  and  _233
REMARK   83  A    between atoms: _233  and  _234
REMARK   84  A    between atoms: _233  and  _236
REMARK   85  A    between atoms: _236  and  _237
REMARK   86  A    between atoms: _247  and  _249
REMARK   87  A    between atoms: _249  and  _250
REMARK   88  A    between atoms: _249  and  _252
REMARK   89  A    between atoms: _252  and  _253
REMARK   90  A    between atoms: _258  and  _260
REMARK   91  A    between atoms: _260  and  _261
REMARK   92  A    between atoms: _260  and  _263
REMARK   93  A    between atoms: _263  and  _264
REMARK   94  A    between atoms: _268  and  ZN_362
REMARK   95  A    between atoms: _269  and  _271
REMARK   96  A    between atoms: _271  and  _272
REMARK   97  A    between atoms: _271  and  _274
REMARK   98  A    between atoms: _274  and  _275
REMARK   99  A    between atoms: _278  and  _280
REMARK  100  A    between atoms: _280  and  _281
REMARK  101  A    between atoms: _283  and  _285
REMARK  102  A    between atoms: _285  and  _286
REMARK  103  A    between atoms: _285  and  _288
REMARK  104  A    between atoms: _288  and  _289
REMARK  105  A    between atoms: _292  and  _294
REMARK  106  A    between atoms: _294  and  _295
REMARK  107  A    between atoms: _294  and  _297
REMARK  108  A    between atoms: _297  and  _298
REMARK  109  A    between atoms: _301  and  _303
REMARK  110  A    between atoms: _303  and  _304
REMARK  111  A    between atoms: _307  and  _309
REMARK  112  A    between atoms: _309  and  _310
REMARK  113  A    between atoms: _309  and  _312
REMARK  114  A    between atoms: _312  and  _313
REMARK  115  A    between atoms: _318  and  _319
REMARK  116  A    between atoms: _321  and  _323
REMARK  117  A    between atoms: _323  and  _324
REMARK  118  A    between atoms: _323  and  _326
REMARK  119  A    between atoms: _326  and  _327
REMARK  120  A    between atoms: _327  and  _328
REMARK  121  A    between atoms: _331  and  _333
REMARK  122  A    between atoms: _333  and  _334
REMARK  123  A    between atoms: _333  and  _336
REMARK  124  A    between atoms: _336  and  _337
REMARK  125  A    between atoms: _337  and  _338
REMARK  126  A    between atoms: _338  and  _339
REMARK  127  A    between atoms: _348  and  _350
REMARK  128  A    between atoms: _350  and  _351
REMARK  129  A    between atoms: _353  and  _355
REMARK  130  A    between atoms: _355  and  _356
REMARK  131  A    between atoms: _355  and  _358
REMARK  132  A    between atoms: _358  and  _359
REMARK                            x       y       z     vdW  Elec       q    Type
REMARK                         _______ _______ _______ _____ _____    ______ ____
ROOT
ATOM      1  CA  TYR A   2      28.361  56.926  12.770  0.00  0.00    +0.141 C 
ENDROOT
BRANCH   1   4
ATOM      2  C   SER A   1      26.115  57.303  11.882  0.00  0.00    +0.241 C 
ATOM      3  O   SER A   1      25.710  56.193  12.302  0.00  0.00    -0.274 OA
ATOM      4  N   TYR A   2      27.398  57.666  11.953  0.00  0.00    -0.298 N 
ATOM      5  H   TYR A   2      27.721  58.495  11.414  0.00  0.00    +0.150 HD
BRANCH   2   6
ATOM      6  CA  SER A   1      25.159  58.284  11.237  0.00  0.00    +0.174 C 
BRANCH   6   7
ATOM      7  N   SER A   1      23.901  57.598  10.893  0.00  0.00    -0.236 NA
ATOM      8  H   SER A   1      23.537  56.858  11.526  0.00  0.00    +0.142 HD
ENDBRANCH   6   7
BRANCH   6   9
ATOM      9  CB  SER A   1      24.895  59.460  12.177  0.00  0.00    +0.163 C 
BRANCH   9  10
ATOM     10  OG  SER A   1      26.115  60.084  12.598  0.00  0.00    -0.380 OA
ATOM     11  H   SER A   1      26.603  60.421  11.805  0.00  0.00    +0.211 HD
ENDBRANCH   9  10
ENDBRANCH   6   9
ENDBRANCH   2   6
ENDBRANCH   1   4
BRANCH   1  12
ATOM     12  C   TYR A   2      28.476  57.452  14.204  0.00  0.00    +0.227 C 
ATOM     13  O   TYR A   2      29.324  56.968  14.962  0.00  0.00    -0.286 OA
ENDBRANCH   1  12
BRANCH   1  14
ATOM     14  CB  TYR A   2      29.761  56.956  12.118  0.00  0.00    +0.054 C 
BRANCH  14  15
ATOM     15  CG  TYR A   2      30.261  58.348  11.811  0.00  0.00    -0.020 A 
ATOM     16  CD2 TYR A   2      30.765  59.168  12.834  0.00  0.00    -0.001 A 
ATOM     17  CE2 TYR A   2      31.212  60.456  12.564  0.00  0.00    +0.036 A 
ATOM     18  CZ  TYR A   2      31.145  60.904  11.272  0.00  0.00    +0.134 A 
ATOM     19  CE1 TYR A   2      30.690  60.151  10.233  0.00  0.00    +0.036 A 
ATOM     20  CD1 TYR A   2      30.228  58.856  10.512  0.00  0.00    -0.001 A 
BRANCH  18  21
ATOM     21  OH  TYR A   2      31.616  62.162  10.968  0.00  0.00    -0.506 OA
ATOM     22  HH  TYR A   2      31.917  62.610  11.798  0.00  0.00    +0.292 HD
ENDBRANCH  18  21
ENDBRANCH  14  15
ENDBRANCH   1  14
TORSDOF 9
REMARK  Name = ../refined-set-2016/3dx4/3dx4_pocket.pdb
REMARK  132 active torsions:
REMARK  status: ('A' for Active; 'I' for Inactive)
REMARK    1  A    between atoms: _1  and  _3
REMARK    2  A    between atoms: _14  and  _17
REMARK    3  A    between atoms: _17  and  _18
REMARK    4  A    between atoms: _25  and  _26
REMARK    5  A    between atoms: _33  and  _34
REMARK    6  A    between atoms: _39  and  _41
REMARK    7  A    between atoms: _41  and  _42
REMARK    8  A    between atoms: _44  and  _46
REMARK    9  A    between atoms: _46  and  _47
REMARK   10  A    between atoms: _46  and  _49
REMARK   11  A    between atoms: _49  and  _50
REMARK   12  A    between atoms: _60  and  _62
REMARK   13  A    between atoms: _62  and  _63
REMARK   14  A    between atoms: _62  and  _65
REMARK   15  A    between atoms: _65  and  _66
REMARK   16  A    between atoms: _69  and  _71
REMARK   17  A    between atoms: _71  and  _72
REMARK   18  A    between atoms: _71  and  _74
REMARK   19  A    between atoms: _74  and  _75
REMARK   20  A    between atoms: _80  and  _81
REMARK   21  A    between atoms: _83  and  _85
REMARK   22  A    between atoms: _85  and  _86
REMARK   23  A    between atoms: _85  and  _88
REMARK   24  A    between atoms: _88  and  _89
REMARK   25  A    between atoms: _89  and  _90
REMARK   26  A    between atoms: _93  and  _95
REMARK   27  A    between atoms: _95  and  _96
REMARK   28  A    between atoms: _95  and  _98
REMARK   29  A    between atoms: _98  and  _99
REMARK   30  A    between atoms: _99  and  _100
REMARK   31  A    between atoms: _102  and  _104
REMARK   32  A    between atoms: _104  and  _105
REMARK   33  A    between atoms: _104  and  _107
REMARK   34  A    between atoms: _107  and  _108
REMARK   35  A    between atoms: _111  and  _113
REMARK   36  A    between atoms: _113  and  _114
REMARK   37  A    between atoms: _113  and  _116
REMARK   38  A    between atoms: _116  and  _117
REMARK   39  A    between atoms: _117  and  _119
REMARK   40  A    between atoms: _119  and  ZN_362
REMARK   41  A    between atoms: _121  and  _122
REMARK   42  A    between atoms: _127  and  _129
REMARK   43  A    between atoms: _129  and  _130
REMARK   44  A    between atoms: _129  and  _132
REMARK   45  A    between atoms: _132  and  _133
REMARK   46  A    between atoms: _139  and  _141
REMARK   47  A    between atoms: _141  and  _142
REMARK   48  A    between atoms: _141  and  _144
REMARK   49  A    between atoms: _144  and  _145
REMARK   50  A    between atoms: _145  and  _146
REMARK   51  A    between atoms: _146  and  _147
REMARK   52  A    between atoms: _156  and  _158
REMARK   53  A    between atoms: _158  and  _159
REMARK   54  A    between atoms: _158  and  _161
REMARK   55  A    between atoms: _161  and  _162
REMARK   56  A    between atoms: _164  and  _166
REMARK   57  A    between atoms: _166  and  _167
REMARK   58  A    between atoms: _166  and  _169
REMARK   59  A    between atoms: _169  and  _170
REMARK   60  A    between atoms: _175  and  _176
REMARK   61  A    between atoms: _178  and  _180
REMARK   62  A    between atoms: _180  and  _181
REMARK   63  A    between atoms: _180  and  _183
REMARK   64  A    between atoms: _183  and  _184
REMARK   65  A    between atoms: _187  and  _189
REMARK   66  A    between atoms: _189  and  _190
REMARK   67  A    between atoms: _189  and  _192
REMARK   68  A    between atoms: _192  and  _193
REMARK   69  A    between atoms: _196  and  _198
REMARK   70  A    between atoms: _198  and  _199
REMARK   71  A    between atoms: _198  and  _201
REMARK   72  A    between atoms: _201  and  _202
REMARK   73  A    between atoms: _208  and  _210
REMARK   74  A    between atoms: _210  and  _211
REMARK   75  A    between atoms: _210  and  _213
REMARK   76  A    between atoms: _213  and  _214
REMARK   77  A    between atoms: _219  and  _220
REMARK   78  A    between atoms: _222  and  _224
REMARK   79  A    between atoms: _224  and  _225
REMARK   80  A    between atoms: _224  and  _227
REMARK   81  A    between atoms: _227  and  _228
REMARK   82  A    between atoms: _231  and  _233
REMARK   83  A    between atoms: _233  and  _234
REMARK   84  A    between atoms: _233  and  _236
REMARK   85  A    between atoms: _236  and  _237
REMARK   86  A    between atoms: _247  and  _249
REMARK   87  A    between atoms: _249  and  _250
REMARK   88  A    between atoms: _249  and  _252
REMARK   89  A    between atoms: _252  and  _253
REMARK   90  A    between atoms: _258  and  _260
REMARK   91  A    between atoms: _260  and  _261
REMARK   92  A    between atoms: _260  and  _263
REMARK   93  A    between atoms: _263  and  _264
REMARK   94  A    between atoms: _268  and  ZN_362
REMARK   95  A    between atoms: _269  and  _271
REMARK   96  A    between atoms: _271  and  _272
REMARK   97  A    between atoms: _271  and  _274
REMARK   98  A    between atoms: _274  and  _275
REMARK   99  A    between atoms: _278  and  _280
REMARK  100  A    between atoms: _280  and  _281
REMARK  101  A    between atoms: _283  and  _285
REMARK  102  A    between atoms: _285  and  _286
REMARK  103  A    between atoms: _285  and  _288
REMARK  104  A    between atoms: _288  and  _289
REMARK  105  A    between atoms: _292  and  _294
REMARK  106  A    between atoms: _294  and  _295
REMARK  107  A    between atoms: _294  and  _297
REMARK  108  A    between atoms: _297  and  _298
REMARK  109  A    between atoms: _301  and  _303
REMARK  110  A    between atoms: _303  and  _304
REMARK  111  A    between atoms: _307  and  _309
REMARK  112  A    between atoms: _309  and  _310
REMARK  113  A    between atoms: _309  and  _312
REMARK  114  A    between atoms: _312  and  _313
REMARK  115  A    between atoms: _318  and  _319
REMARK  116  A    between atoms: _321  and  _323
REMARK  117  A    between atoms: _323  and  _324
REMARK  118  A    between atoms: _323  and  _326
REMARK  119  A    between atoms: _326  and  _327
REMARK  120  A    between atoms: _327  and  _328
REMARK  121  A    between atoms: _331  and  _333
REMARK  122  A    between atoms: _333  and  _334
REMARK  123  A    between atoms: _333  and  _336
REMARK  124  A    between atoms: _336  and  _337
REMARK  125  A    between atoms: _337  and  _338
REMARK  126  A    between atoms: _338  and  _339
REMARK  127  A    between atoms: _348  and  _350
REMARK  128  A    between atoms: _350  and  _351
REMARK  129  A    between atoms: _353  and  _355
REMARK  130  A    between atoms: _355  and  _356
REMARK  131  A    between atoms: _355  and  _358
REMARK  132  A    between atoms: _358  and  _359
REMARK                            x       y       z     vdW  Elec       q    Type
REMARK                         _______ _______ _______ _____ _____    ______ ____
ROOT
ATOM      1  CA  ASP A   2      33.868  64.097  15.292  0.00  0.00    +0.160 C 
ENDROOT
BRANCH   1   4
ATOM      2  C   ASP A   1      33.272  62.022  16.403  0.00  0.00    +0.239 C 
ATOM      3  O   ASP A   1      34.444  61.720  16.616  0.00  0.00    -0.274 OA
ATOM      4  N   ASP A   2      32.883  63.165  15.871  0.00  0.00    -0.297 N 
ATOM      5  H   ASP A   2      31.873  63.411  15.860  0.00  0.00    +0.150 HD
BRANCH   2   6
ATOM      6  CA  ASP A   1      32.120  61.062  16.765  0.00  0.00    +0.156 C 
BRANCH   6   7
ATOM      7  N   ASP A   1      32.741  59.998  17.535  0.00  0.00    -0.238 NA
ATOM      8  H   ASP A   1      33.736  60.105  17.817  0.00  0.00    +0.142 HD
ENDBRANCH   6   7
BRANCH   6   9
ATOM      9  CB  ASP A   1      31.029  61.746  17.652  0.00  0.00    +0.140 C 
BRANCH   9  10
ATOM     10  CG  ASP A   1      29.939  62.494  16.878  0.00  0.00    +0.367 C 
ATOM     11  OD2 ASP A   1      28.896  62.764  17.550  0.00  0.00    -0.246 OA
ATOM     12  OD1 ASP A   1      30.132  62.823  15.687  0.00  0.00    -0.246 OA
ENDBRANCH   9  10
ENDBRANCH   6   9
ENDBRANCH   2   6
ENDBRANCH   1   4
BRANCH   1  13
ATOM     13  C   ASP A   2      34.681  64.709  16.437  0.00  0.00    +0.241 C 
ATOM     14  O   ASP A   2      34.137  65.237  17.421  0.00  0.00    -0.273 OA
ATOM     15  N   PHE A   3      36.001  64.635  16.283  0.00  0.00    -0.298 N 
ATOM     16  H   PHE A   3      36.375  64.138  15.449  0.00  0.00    +0.150 HD
BRANCH  15  17
ATOM     17  CA  PHE A   3      36.948  65.216  17.225  0.00  0.00    +0.141 C 
BRANCH  17  18
ATOM     18  C   PHE A   3      36.657  64.828  18.679  0.00  0.00    +0.227 C 
ATOM     19  O   PHE A   3      36.885  65.628  19.612  0.00  0.00    -0.286 OA
ENDBRANCH  17  18
BRANCH  17  20
ATOM     20  CB  PHE A   3      37.023  66.742  17.014  0.00  0.00    +0.054 C 
BRANCH  20  21
ATOM     21  CG  PHE A   3      37.627  67.123  15.685  0.00  0.00    -0.020 A 
ATOM     22  CD2 PHE A   3      39.004  67.074  15.498  0.00  0.00    -0.004 A 
ATOM     23  CE2 PHE A   3      39.569  67.426  14.269  0.00  0.00    -0.000 A 
ATOM     24  CZ  PHE A   3      38.766  67.837  13.226  0.00  0.00    -0.000 A 
ATOM     25  CE1 PHE A   3      37.405  67.866  13.373  0.00  0.00    -0.000 A 
ATOM     26  CD1 PHE A   3      36.827  67.522  14.612  0.00  0.00    -0.004 A 
ENDBRANCH  20  21
ENDBRANCH  17  20
ENDBRANCH  15  17
ENDBRANCH   1  13
BRANCH   1  27
ATOM     27  CB  ASP A   2      33.166  65.171  14.493  0.00  0.00    +0.143 C 
BRANCH  27  28
ATOM     28  CG  ASP A   2      32.579  64.637  13.209  0.00  0.00    +0.367 C 
ATOM     29  OD2 ASP A   2      32.614  63.411  12.992  0.00  0.00    -0.246 OA
ATOM     30  OD1 ASP A   2      32.115  65.475  12.401  0.00  0.00    -0.246 OA
ENDBRANCH  27  28
ENDBRANCH   1  27
TORSDOF 12
REMARK  Name = ../refined-set-2016/3dx4/3dx4_pocket.pdb
REMARK  132 active torsions:
REMARK  status: ('A' for Active; 'I' for Inactive)
REMARK    1  A    between atoms: _1  and  _3
REMARK    2  A    between atoms: _14  and  _17
REMARK    3  A    between atoms: _17  and  _18
REMARK    4  A    between atoms: _25  and  _26
REMARK    5  A    between atoms: _33  and  _34
REMARK    6  A    between atoms: _39  and  _41
REMARK    7  A    between atoms: _41  and  _42
REMARK    8  A    between atoms: _44  and  _46
REMARK    9  A    between atoms: _46  and  _47
REMARK   10  A    between atoms: _46  and  _49
REMARK   11  A    between atoms: _49  and  _50
REMARK   12  A    between atoms: _60  and  _62
REMARK   13  A    between atoms: _62  and  _63
REMARK   14  A    between atoms: _62  and  _65
REMARK   15  A    between atoms: _65  and  _66
REMARK   16  A    between atoms: _69  and  _71
REMARK   17  A    between atoms: _71  and  _72
REMARK   18  A    between atoms: _71  and  _74
REMARK   19  A    between atoms: _74  and  _75
REMARK   20  A    between atoms: _80  and  _81
REMARK   21  A    between atoms: _83  and  _85
REMARK   22  A    between atoms: _85  and  _86
REMARK   23  A    between atoms: _85  and  _88
REMARK   24  A    between atoms: _88  and  _89
REMARK   25  A    between atoms: _89  and  _90
REMARK   26  A    between atoms: _93  and  _95
REMARK   27  A    between atoms: _95  and  _96
REMARK   28  A    between atoms: _95  and  _98
REMARK   29  A    between atoms: _98  and  _99
REMARK   30  A    between atoms: _99  and  _100
REMARK   31  A    between atoms: _102  and  _104
REMARK   32  A    between atoms: _104  and  _105
REMARK   33  A    between atoms: _104  and  _107
REMARK   34  A    between atoms: _107  and  _108
REMARK   35  A    between atoms: _111  and  _113
REMARK   36  A    between atoms: _113  and  _114
REMARK   37  A    between atoms: _113  and  _116
REMARK   38  A    between atoms: _116  and  _117
REMARK   39  A    between atoms: _117  and  _119
REMARK   40  A    between atoms: _119  and  ZN_362
REMARK   41  A    between atoms: _121  and  _122
REMARK   42  A    between atoms: _127  and  _129
REMARK   43  A    between atoms: _129  and  _130
REMARK   44  A    between atoms: _129  and  _132
REMARK   45  A    between atoms: _132  and  _133
REMARK   46  A    between atoms: _139  and  _141
REMARK   47  A    between atoms: _141  and  _142
REMARK   48  A    between atoms: _141  and  _144
REMARK   49  A    between atoms: _144  and  _145
REMARK   50  A    between atoms: _145  and  _146
REMARK   51  A    between atoms: _146  and  _147
REMARK   52  A    between atoms: _156  and  _158
REMARK   53  A    between atoms: _158  and  _159
REMARK   54  A    between atoms: _158  and  _161
REMARK   55  A    between atoms: _161  and  _162
REMARK   56  A    between atoms: _164  and  _166
REMARK   57  A    between atoms: _166  and  _167
REMARK   58  A    between atoms: _166  and  _169
REMARK   59  A    between atoms: _169  and  _170
REMARK   60  A    between atoms: _175  and  _176
REMARK   61  A    between atoms: _178  and  _180
REMARK   62  A    between atoms: _180  and  _181
REMARK   63  A    between atoms: _180  and  _183
REMARK   64  A    between atoms: _183  and  _184
REMARK   65  A    between atoms: _187  and  _189
REMARK   66  A    between atoms: _189  and  _190
REMARK   67  A    between atoms: _189  and  _192
REMARK   68  A    between atoms: _192  and  _193
REMARK   69  A    between atoms: _196  and  _198
REMARK   70  A    between atoms: _198  and  _199
REMARK   71  A    between atoms: _198  and  _201
REMARK   72  A    between atoms: _201  and  _202
REMARK   73  A    between atoms: _208  and  _210
REMARK   74  A    between atoms: _210  and  _211
REMARK   75  A    between atoms: _210  and  _213
REMARK   76  A    between atoms: _213  and  _214
REMARK   77  A    between atoms: _219  and  _220
REMARK   78  A    between atoms: _222  and  _224
REMARK   79  A    between atoms: _224  and  _225
REMARK   80  A    between atoms: _224  and  _227
REMARK   81  A    between atoms: _227  and  _228
REMARK   82  A    between atoms: _231  and  _233
REMARK   83  A    between atoms: _233  and  _234
REMARK   84  A    between atoms: _233  and  _236
REMARK   85  A    between atoms: _236  and  _237
REMARK   86  A    between atoms: _247  and  _249
REMARK   87  A    between atoms: _249  and  _250
REMARK   88  A    between atoms: _249  and  _252
REMARK   89  A    between atoms: _252  and  _253
REMARK   90  A    between atoms: _258  and  _260
REMARK   91  A    between atoms: _260  and  _261
REMARK   92  A    between atoms: _260  and  _263
REMARK   93  A    between atoms: _263  and  _264
REMARK   94  A    between atoms: _268  and  ZN_362
REMARK   95  A    between atoms: _269  and  _271
REMARK   96  A    between atoms: _271  and  _272
REMARK   97  A    between atoms: _271  and  _274
REMARK   98  A    between atoms: _274  and  _275
REMARK   99  A    between atoms: _278  and  _280
REMARK  100  A    between atoms: _280  and  _281
REMARK  101  A    between atoms: _283  and  _285
REMARK  102  A    between atoms: _285  and  _286
REMARK  103  A    between atoms: _285  and  _288
REMARK  104  A    between atoms: _288  and  _289
REMARK  105  A    between atoms: _292  and  _294
REMARK  106  A    between atoms: _294  and  _295
REMARK  107  A    between atoms: _294  and  _297
REMARK  108  A    between atoms: _297  and  _298
REMARK  109  A    between atoms: _301  and  _303
REMARK  110  A    between atoms: _303  and  _304
REMARK  111  A    between atoms: _307  and  _309
REMARK  112  A    between atoms: _309  and  _310
REMARK  113  A    between atoms: _309  and  _312
REMARK  114  A    between atoms: _312  and  _313
REMARK  115  A    between atoms: _318  and  _319
REMARK  116  A    between atoms: _321  and  _323
REMARK  117  A    between atoms: _323  and  _324
REMARK  118  A    between atoms: _323  and  _326
REMARK  119  A    between atoms: _326  and  _327
REMARK  120  A    between atoms: _327  and  _328
REMARK  121  A    between atoms: _331  and  _333
REMARK  122  A    between atoms: _333  and  _334
REMARK  123  A    between atoms: _333  and  _336
REMARK  124  A    between atoms: _336  and  _337
REMARK  125  A    between atoms: _337  and  _338
REMARK  126  A    between atoms: _338  and  _339
REMARK  127  A    between atoms: _348  and  _350
REMARK  128  A    between atoms: _350  and  _351
REMARK  129  A    between atoms: _353  and  _355
REMARK  130  A    between atoms: _355  and  _356
REMARK  131  A    between atoms: _355  and  _358
REMARK  132  A    between atoms: _358  and  _359
REMARK                            x       y       z     vdW  Elec       q    Type
REMARK                         _______ _______ _______ _____ _____    ______ ____
ROOT
ATOM      1  CG  TYR A   1      24.951  59.827   0.792  0.00  0.00    -0.020 A 
ATOM      2  CD2 TYR A   1      24.485  58.775   1.563  0.00  0.00    -0.001 A 
ATOM      3  CE2 TYR A   1      24.373  58.910   2.925  0.00  0.00    +0.036 A 
ATOM      4  CZ  TYR A   1      24.752  60.095   3.529  0.00  0.00    +0.134 A 
ATOM      5  CE1 TYR A   1      25.232  61.134   2.773  0.00  0.00    +0.036 A 
ATOM      6  CD1 TYR A   1      25.335  60.988   1.431  0.00  0.00    -0.001 A 
ENDROOT
BRANCH   4   7
ATOM      7  OH  TYR A   1      24.685  60.230   4.889  0.00  0.00    -0.506 OA
ATOM      8  HH  TYR A   1      24.320  59.399   5.284  0.00  0.00    +0.292 HD
ENDBRANCH   4   7
BRANCH   1   9
ATOM      9  CB  TYR A   1      25.144  59.694  -0.696  0.00  0.00    +0.051 C 
BRANCH   9  10
ATOM     10  CA  TYR A   1      23.931  59.374  -1.543  0.00  0.00    +0.137 C 
BRANCH  10  11
ATOM     11  N   TYR A   1      24.358  59.439  -2.927  0.00  0.00    -0.239 NA
ATOM     12  H   TYR A   1      25.326  59.761  -3.128  0.00  0.00    +0.142 HD
ENDBRANCH  10  11
BRANCH  10  13
ATOM     13  C   TYR A   1      22.797  60.346  -1.227  0.00  0.00    +0.224 C 
ATOM     14  O   TYR A   1      22.823  61.483  -1.645  0.00  0.00    -0.287 OA
ENDBRANCH  10  13
ENDBRANCH   9  10
ENDBRANCH   1   9
TORSDOF 5
REMARK  Name = ../refined-set-2016/3dx4/3dx4_pocket.pdb
REMARK  132 active torsions:
REMARK  status: ('A' for Active; 'I' for Inactive)
REMARK    1  A    between atoms: _1  and  _3
REMARK    2  A    between atoms: _14  and  _17
REMARK    3  A    between atoms: _17  and  _18
REMARK    4  A    between atoms: _25  and  _26
REMARK    5  A    between atoms: _33  and  _34
REMARK    6  A    between atoms: _39  and  _41
REMARK    7  A    between atoms: _41  and  _42
REMARK    8  A    between atoms: _44  and  _46
REMARK    9  A    between atoms: _46  and  _47
REMARK   10  A    between atoms: _46  and  _49
REMARK   11  A    between atoms: _49  and  _50
REMARK   12  A    between atoms: _60  and  _62
REMARK   13  A    between atoms: _62  and  _63
REMARK   14  A    between atoms: _62  and  _65
REMARK   15  A    between atoms: _65  and  _66
REMARK   16  A    between atoms: _69  and  _71
REMARK   17  A    between atoms: _71  and  _72
REMARK   18  A    between atoms: _71  and  _74
REMARK   19  A    between atoms: _74  and  _75
REMARK   20  A    between atoms: _80  and  _81
REMARK   21  A    between atoms: _83  and  _85
REMARK   22  A    between atoms: _85  and  _86
REMARK   23  A    between atoms: _85  and  _88
REMARK   24  A    between atoms: _88  and  _89
REMARK   25  A    between atoms: _89  and  _90
REMARK   26  A    between atoms: _93  and  _95
REMARK   27  A    between atoms: _95  and  _96
REMARK   28  A    between atoms: _95  and  _98
REMARK   29  A    between atoms: _98  and  _99
REMARK   30  A    between atoms: _99  and  _100
REMARK   31  A    between atoms: _102  and  _104
REMARK   32  A    between atoms: _104  and  _105
REMARK   33  A    between atoms: _104  and  _107
REMARK   34  A    between atoms: _107  and  _108
REMARK   35  A    between atoms: _111  and  _113
REMARK   36  A    between atoms: _113  and  _114
REMARK   37  A    between atoms: _113  and  _116
REMARK   38  A    between atoms: _116  and  _117
REMARK   39  A    between atoms: _117  and  _119
REMARK   40  A    between atoms: _119  and  ZN_362
REMARK   41  A    between atoms: _121  and  _122
REMARK   42  A    between atoms: _127  and  _129
REMARK   43  A    between atoms: _129  and  _130
REMARK   44  A    between atoms: _129  and  _132
REMARK   45  A    between atoms: _132  and  _133
REMARK   46  A    between atoms: _139  and  _141
REMARK   47  A    between atoms: _141  and  _142
REMARK   48  A    between atoms: _141  and  _144
REMARK   49  A    between atoms: _144  and  _145
REMARK   50  A    between atoms: _145  and  _146
REMARK   51  A    between atoms: _146  and  _147
REMARK   52  A    between atoms: _156  and  _158
REMARK   53  A    between atoms: _158  and  _159
REMARK   54  A    between atoms: _158  and  _161
REMARK   55  A    between atoms: _161  and  _162
REMARK   56  A    between atoms: _164  and  _166
REMARK   57  A    between atoms: _166  and  _167
REMARK   58  A    between atoms: _166  and  _169
REMARK   59  A    between atoms: _169  and  _170
REMARK   60  A    between atoms: _175  and  _176
REMARK   61  A    between atoms: _178  and  _180
REMARK   62  A    between atoms: _180  and  _181
REMARK   63  A    between atoms: _180  and  _183
REMARK   64  A    between atoms: _183  and  _184
REMARK   65  A    between atoms: _187  and  _189
REMARK   66  A    between atoms: _189  and  _190
REMARK   67  A    between atoms: _189  and  _192
REMARK   68  A    between atoms: _192  and  _193
REMARK   69  A    between atoms: _196  and  _198
REMARK   70  A    between atoms: _198  and  _199
REMARK   71  A    between atoms: _198  and  _201
REMARK   72  A    between atoms: _201  and  _202
REMARK   73  A    between atoms: _208  and  _210
REMARK   74  A    between atoms: _210  and  _211
REMARK   75  A    between atoms: _210  and  _213
REMARK   76  A    between atoms: _213  and  _214
REMARK   77  A    between atoms: _219  and  _220
REMARK   78  A    between atoms: _222  and  _224
REMARK   79  A    between atoms: _224  and  _225
REMARK   80  A    between atoms: _224  and  _227
REMARK   81  A    between atoms: _227  and  _228
REMARK   82  A    between atoms: _231  and  _233
REMARK   83  A    between atoms: _233  and  _234
REMARK   84  A    between atoms: _233  and  _236
REMARK   85  A    between atoms: _236  and  _237
REMARK   86  A    between atoms: _247  and  _249
REMARK   87  A    between atoms: _249  and  _250
REMARK   88  A    between atoms: _249  and  _252
REMARK   89  A    between atoms: _252  and  _253
REMARK   90  A    between atoms: _258  and  _260
REMARK   91  A    between atoms: _260  and  _261
REMARK   92  A    between atoms: _260  and  _263
REMARK   93  A    between atoms: _263  and  _264
REMARK   94  A    between atoms: _268  and  ZN_362
REMARK   95  A    between atoms: _269  and  _271
REMARK   96  A    between atoms: _271  and  _272
REMARK   97  A    between atoms: _271  and  _274
REMARK   98  A    between atoms: _274  and  _275
REMARK   99  A    between atoms: _278  and  _280
REMARK  100  A    between atoms: _280  and  _281
REMARK  101  A    between atoms: _283  and  _285
REMARK  102  A    between atoms: _285  and  _286
REMARK  103  A    between atoms: _285  and  _288
REMARK  104  A    between atoms: _288  and  _289
REMARK  105  A    between atoms: _292  and  _294
REMARK  106  A    between atoms: _294  and  _295
REMARK  107  A    between atoms: _294  and  _297
REMARK  108  A    between atoms: _297  and  _298
REMARK  109  A    between atoms: _301  and  _303
REMARK  110  A    between atoms: _303  and  _304
REMARK  111  A    between atoms: _307  and  _309
REMARK  112  A    between atoms: _309  and  _310
REMARK  113  A    between atoms: _309  and  _312
REMARK  114  A    between atoms: _312  and  _313
REMARK  115  A    between atoms: _318  and  _319
REMARK  116  A    between atoms: _321  and  _323
REMARK  117  A    between atoms: _323  and  _324
REMARK  118  A    between atoms: _323  and  _326
REMARK  119  A    between atoms: _326  and  _327
REMARK  120  A    between atoms: _327  and  _328
REMARK  121  A    between atoms: _331  and  _333
REMARK  122  A    between atoms: _333  and  _334
REMARK  123  A    between atoms: _333  and  _336
REMARK  124  A    between atoms: _336  and  _337
REMARK  125  A    between atoms: _337  and  _338
REMARK  126  A    between atoms: _338  and  _339
REMARK  127  A    between atoms: _348  and  _350
REMARK  128  A    between atoms: _350  and  _351
REMARK  129  A    between atoms: _353  and  _355
REMARK  130  A    between atoms: _355  and  _356
REMARK  131  A    between atoms: _355  and  _358
REMARK  132  A    between atoms: _358  and  _359
REMARK                            x       y       z     vdW  Elec       q    Type
REMARK                         _______ _______ _______ _____ _____    ______ ____
ROOT
ATOM      1  CA  ASP A   1      20.894  60.851   4.040  0.00  0.00    +0.144 C 
ENDROOT
BRANCH   1   2
ATOM      2  N   ASP A   1      20.986  61.213   2.630  0.00  0.00    -0.239 NA
ATOM      3  H   ASP A   1      21.145  62.205   2.359  0.00  0.00    +0.142 HD
ENDBRANCH   1   2
BRANCH   1   4
ATOM      4  C   ASP A   1      19.465  60.876   4.582  0.00  0.00    +0.225 C 
ATOM      5  O   ASP A   1      19.198  60.239   5.627  0.00  0.00    -0.287 OA
ENDBRANCH   1   4
BRANCH   1   6
ATOM      6  CB  ASP A   1      21.817  61.723   4.927  0.00  0.00    +0.139 C 
BRANCH   6   7
ATOM      7  CG  ASP A   1      21.517  63.234   4.860  0.00  0.00    +0.367 C 
ATOM      8  OD2 ASP A   1      22.023  63.914   5.810  0.00  0.00    -0.246 OA
ATOM      9  OD1 ASP A   1      20.933  63.742   3.890  0.00  0.00    -0.246 OA
ENDBRANCH   6   7
ENDBRANCH   1   6
TORSDOF 4
REMARK  Name = ../refined-set-2016/3dx4/3dx4_pocket.pdb
REMARK  132 active torsions:
REMARK  status: ('A' for Active; 'I' for Inactive)
REMARK    1  A    between atoms: _1  and  _3
REMARK    2  A    between atoms: _14  and  _17
REMARK    3  A    between atoms: _17  and  _18
REMARK    4  A    between atoms: _25  and  _26
REMARK    5  A    between atoms: _33  and  _34
REMARK    6  A    between atoms: _39  and  _41
REMARK    7  A    between atoms: _41  and  _42
REMARK    8  A    between atoms: _44  and  _46
REMARK    9  A    between atoms: _46  and  _47
REMARK   10  A    between atoms: _46  and  _49
REMARK   11  A    between atoms: _49  and  _50
REMARK   12  A    between atoms: _60  and  _62
REMARK   13  A    between atoms: _62  and  _63
REMARK   14  A    between atoms: _62  and  _65
REMARK   15  A    between atoms: _65  and  _66
REMARK   16  A    between atoms: _69  and  _71
REMARK   17  A    between atoms: _71  and  _72
REMARK   18  A    between atoms: _71  and  _74
REMARK   19  A    between atoms: _74  and  _75
REMARK   20  A    between atoms: _80  and  _81
REMARK   21  A    between atoms: _83  and  _85
REMARK   22  A    between atoms: _85  and  _86
REMARK   23  A    between atoms: _85  and  _88
REMARK   24  A    between atoms: _88  and  _89
REMARK   25  A    between atoms: _89  and  _90
REMARK   26  A    between atoms: _93  and  _95
REMARK   27  A    between atoms: _95  and  _96
REMARK   28  A    between atoms: _95  and  _98
REMARK   29  A    between atoms: _98  and  _99
REMARK   30  A    between atoms: _99  and  _100
REMARK   31  A    between atoms: _102  and  _104
REMARK   32  A    between atoms: _104  and  _105
REMARK   33  A    between atoms: _104  and  _107
REMARK   34  A    between atoms: _107  and  _108
REMARK   35  A    between atoms: _111  and  _113
REMARK   36  A    between atoms: _113  and  _114
REMARK   37  A    between atoms: _113  and  _116
REMARK   38  A    between atoms: _116  and  _117
REMARK   39  A    between atoms: _117  and  _119
REMARK   40  A    between atoms: _119  and  ZN_362
REMARK   41  A    between atoms: _121  and  _122
REMARK   42  A    between atoms: _127  and  _129
REMARK   43  A    between atoms: _129  and  _130
REMARK   44  A    between atoms: _129  and  _132
REMARK   45  A    between atoms: _132  and  _133
REMARK   46  A    between atoms: _139  and  _141
REMARK   47  A    between atoms: _141  and  _142
REMARK   48  A    between atoms: _141  and  _144
REMARK   49  A    between atoms: _144  and  _145
REMARK   50  A    between atoms: _145  and  _146
REMARK   51  A    between atoms: _146  and  _147
REMARK   52  A    between atoms: _156  and  _158
REMARK   53  A    between atoms: _158  and  _159
REMARK   54  A    between atoms: _158  and  _161
REMARK   55  A    between atoms: _161  and  _162
REMARK   56  A    between atoms: _164  and  _166
REMARK   57  A    between atoms: _166  and  _167
REMARK   58  A    between atoms: _166  and  _169
REMARK   59  A    between atoms: _169  and  _170
REMARK   60  A    between atoms: _175  and  _176
REMARK   61  A    between atoms: _178  and  _180
REMARK   62  A    between atoms: _180  and  _181
REMARK   63  A    between atoms: _180  and  _183
REMARK   64  A    between atoms: _183  and  _184
REMARK   65  A    between atoms: _187  and  _189
REMARK   66  A    between atoms: _189  and  _190
REMARK   67  A    between atoms: _189  and  _192
REMARK   68  A    between atoms: _192  and  _193
REMARK   69  A    between atoms: _196  and  _198
REMARK   70  A    between atoms: _198  and  _199
REMARK   71  A    between atoms: _198  and  _201
REMARK   72  A    between atoms: _201  and  _202
REMARK   73  A    between atoms: _208  and  _210
REMARK   74  A    between atoms: _210  and  _211
REMARK   75  A    between atoms: _210  and  _213
REMARK   76  A    between atoms: _213  and  _214
REMARK   77  A    between atoms: _219  and  _220
REMARK   78  A    between atoms: _222  and  _224
REMARK   79  A    between atoms: _224  and  _225
REMARK   80  A    between atoms: _224  and  _227
REMARK   81  A    between atoms: _227  and  _228
REMARK   82  A    between atoms: _231  and  _233
REMARK   83  A    between atoms: _233  and  _234
REMARK   84  A    between atoms: _233  and  _236
REMARK   85  A    between atoms: _236  and  _237
REMARK   86  A    between atoms: _247  and  _249
REMARK   87  A    between atoms: _249  and  _250
REMARK   88  A    between atoms: _249  and  _252
REMARK   89  A    between atoms: _252  and  _253
REMARK   90  A    between atoms: _258  and  _260
REMARK   91  A    between atoms: _260  and  _261
REMARK   92  A    between atoms: _260  and  _263
REMARK   93  A    between atoms: _263  and  _264
REMARK   94  A    between atoms: _268  and  ZN_362
REMARK   95  A    between atoms: _269  and  _271
REMARK   96  A    between atoms: _271  and  _272
REMARK   97  A    between atoms: _271  and  _274
REMARK   98  A    between atoms: _274  and  _275
REMARK   99  A    between atoms: _278  and  _280
REMARK  100  A    between atoms: _280  and  _281
REMARK  101  A    between atoms: _283  and  _285
REMARK  102  A    between atoms: _285  and  _286
REMARK  103  A    between atoms: _285  and  _288
REMARK  104  A    between atoms: _288  and  _289
REMARK  105  A    between atoms: _292  and  _294
REMARK  106  A    between atoms: _294  and  _295
REMARK  107  A    between atoms: _294  and  _297
REMARK  108  A    between atoms: _297  and  _298
REMARK  109  A    between atoms: _301  and  _303
REMARK  110  A    between atoms: _303  and  _304
REMARK  111  A    between atoms: _307  and  _309
REMARK  112  A    between atoms: _309  and  _310
REMARK  113  A    between atoms: _309  and  _312
REMARK  114  A    between atoms: _312  and  _313
REMARK  115  A    between atoms: _318  and  _319
REMARK  116  A    between atoms: _321  and  _323
REMARK  117  A    between atoms: _323  and  _324
REMARK  118  A    between atoms: _323  and  _326
REMARK  119  A    between atoms: _326  and  _327
REMARK  120  A    between atoms: _327  and  _328
REMARK  121  A    between atoms: _331  and  _333
REMARK  122  A    between atoms: _333  and  _334
REMARK  123  A    between atoms: _333  and  _336
REMARK  124  A    between atoms: _336  and  _337
REMARK  125  A    between atoms: _337  and  _338
REMARK  126  A    between atoms: _338  and  _339
REMARK  127  A    between atoms: _348  and  _350
REMARK  128  A    between atoms: _350  and  _351
REMARK  129  A    between atoms: _353  and  _355
REMARK  130  A    between atoms: _355  and  _356
REMARK  131  A    between atoms: _355  and  _358
REMARK  132  A    between atoms: _358  and  _359
REMARK                            x       y       z     vdW  Elec       q    Type
REMARK                         _______ _______ _______ _____ _____    ______ ____
ROOT
ATOM      1  CG  TRP A   1      24.658  64.333   0.371  0.00  0.00    -0.002 A 
ATOM      2  CD2 TRP A   1      25.361  64.575   1.591  0.00  0.00    +0.013 A 
ATOM      3  CE2 TRP A   1      24.429  64.461   2.659  0.00  0.00    +0.056 A 
ATOM      4  CZ2 TRP A   1      24.791  64.628   3.980  0.00  0.00    +0.017 A 
ATOM      5  CH2 TRP A   1      26.125  64.881   4.253  0.00  0.00    +0.001 A 
ATOM      6  CZ3 TRP A   1      27.079  65.000   3.209  0.00  0.00    +0.000 A 
ATOM      7  NE1 TRP A   1      23.197  64.178   2.108  0.00  0.00    -0.352 N 
ATOM      8  HE1 TRP A   1      22.314  64.043   2.641  0.00  0.00    +0.166 HD
ATOM      9  CE3 TRP A   1      26.718  64.832   1.906  0.00  0.00    +0.001 A 
ATOM     10  CD1 TRP A   1      23.325  64.102   0.733  0.00  0.00    +0.068 A 
ENDROOT
BRANCH   1  11
ATOM     11  CB  TRP A   1      25.238  64.282  -1.013  0.00  0.00    +0.053 C 
BRANCH  11  12
ATOM     12  CA  TRP A   1      24.379  64.979  -2.046  0.00  0.00    +0.137 C 
BRANCH  12  13
ATOM     13  N   TRP A   1      23.118  64.242  -2.213  0.00  0.00    -0.239 NA
ATOM     14  H   TRP A   1      23.114  63.209  -2.092  0.00  0.00    +0.142 HD
ENDBRANCH  12  13
BRANCH  12  15
ATOM     15  C   TRP A   1      25.095  65.034  -3.402  0.00  0.00    +0.224 C 
ATOM     16  O   TRP A   1      26.229  64.588  -3.538  0.00  0.00    -0.287 OA
ENDBRANCH  12  15
ENDBRANCH  11  12
ENDBRANCH   1  11
TORSDOF 4
REMARK  Name = ../refined-set-2016/3dx4/3dx4_pocket.pdb
REMARK  132 active torsions:
REMARK  status: ('A' for Active; 'I' for Inactive)
REMARK    1  A    between atoms: _1  and  _3
REMARK    2  A    between atoms: _14  and  _17
REMARK    3  A    between atoms: _17  and  _18
REMARK    4  A    between atoms: _25  and  _26
REMARK    5  A    between atoms: _33  and  _34
REMARK    6  A    between atoms: _39  and  _41
REMARK    7  A    between atoms: _41  and  _42
REMARK    8  A    between atoms: _44  and  _46
REMARK    9  A    between atoms: _46  and  _47
REMARK   10  A    between atoms: _46  and  _49
REMARK   11  A    between atoms: _49  and  _50
REMARK   12  A    between atoms: _60  and  _62
REMARK   13  A    between atoms: _62  and  _63
REMARK   14  A    between atoms: _62  and  _65
REMARK   15  A    between atoms: _65  and  _66
REMARK   16  A    between atoms: _69  and  _71
REMARK   17  A    between atoms: _71  and  _72
REMARK   18  A    between atoms: _71  and  _74
REMARK   19  A    between atoms: _74  and  _75
REMARK   20  A    between atoms: _80  and  _81
REMARK   21  A    between atoms: _83  and  _85
REMARK   22  A    between atoms: _85  and  _86
REMARK   23  A    between atoms: _85  and  _88
REMARK   24  A    between atoms: _88  and  _89
REMARK   25  A    between atoms: _89  and  _90
REMARK   26  A    between atoms: _93  and  _95
REMARK   27  A    between atoms: _95  and  _96
REMARK   28  A    between atoms: _95  and  _98
REMARK   29  A    between atoms: _98  and  _99
REMARK   30  A    between atoms: _99  and  _100
REMARK   31  A    between atoms: _102  and  _104
REMARK   32  A    between atoms: _104  and  _105
REMARK   33  A    between atoms: _104  and  _107
REMARK   34  A    between atoms: _107  and  _108
REMARK   35  A    between atoms: _111  and  _113
REMARK   36  A    between atoms: _113  and  _114
REMARK   37  A    between atoms: _113  and  _116
REMARK   38  A    between atoms: _116  and  _117
REMARK   39  A    between atoms: _117  and  _119
REMARK   40  A    between atoms: _119  and  ZN_362
REMARK   41  A    between atoms: _121  and  _122
REMARK   42  A    between atoms: _127  and  _129
REMARK   43  A    between atoms: _129  and  _130
REMARK   44  A    between atoms: _129  and  _132
REMARK   45  A    between atoms: _132  and  _133
REMARK   46  A    between atoms: _139  and  _141
REMARK   47  A    between atoms: _141  and  _142
REMARK   48  A    between atoms: _141  and  _144
REMARK   49  A    between atoms: _144  and  _145
REMARK   50  A    between atoms: _145  and  _146
REMARK   51  A    between atoms: _146  and  _147
REMARK   52  A    between atoms: _156  and  _158
REMARK   53  A    between atoms: _158  and  _159
REMARK   54  A    between atoms: _158  and  _161
REMARK   55  A    between atoms: _161  and  _162
REMARK   56  A    between atoms: _164  and  _166
REMARK   57  A    between atoms: _166  and  _167
REMARK   58  A    between atoms: _166  and  _169
REMARK   59  A    between atoms: _169  and  _170
REMARK   60  A    between atoms: _175  and  _176
REMARK   61  A    between atoms: _178  and  _180
REMARK   62  A    between atoms: _180  and  _181
REMARK   63  A    between atoms: _180  and  _183
REMARK   64  A    between atoms: _183  and  _184
REMARK   65  A    between atoms: _187  and  _189
REMARK   66  A    between atoms: _189  and  _190
REMARK   67  A    between atoms: _189  and  _192
REMARK   68  A    between atoms: _192  and  _193
REMARK   69  A    between atoms: _196  and  _198
REMARK   70  A    between atoms: _198  and  _199
REMARK   71  A    between atoms: _198  and  _201
REMARK   72  A    between atoms: _201  and  _202
REMARK   73  A    between atoms: _208  and  _210
REMARK   74  A    between atoms: _210  and  _211
REMARK   75  A    between atoms: _210  and  _213
REMARK   76  A    between atoms: _213  and  _214
REMARK   77  A    between atoms: _219  and  _220
REMARK   78  A    between atoms: _222  and  _224
REMARK   79  A    between atoms: _224  and  _225
REMARK   80  A    between atoms: _224  and  _227
REMARK   81  A    between atoms: _227  and  _228
REMARK   82  A    between atoms: _231  and  _233
REMARK   83  A    between atoms: _233  and  _234
REMARK   84  A    between atoms: _233  and  _236
REMARK   85  A    between atoms: _236  and  _237
REMARK   86  A    between atoms: _247  and  _249
REMARK   87  A    between atoms: _249  and  _250
REMARK   88  A    between atoms: _249  and  _252
REMARK   89  A    between atoms: _252  and  _253
REMARK   90  A    between atoms: _258  and  _260
REMARK   91  A    between atoms: _260  and  _261
REMARK   92  A    between atoms: _260  and  _263
REMARK   93  A    between atoms: _263  and  _264
REMARK   94  A    between atoms: _268  and  ZN_362
REMARK   95  A    between atoms: _269  and  _271
REMARK   96  A    between atoms: _271  and  _272
REMARK   97  A    between atoms: _271  and  _274
REMARK   98  A    between atoms: _274  and  _275
REMARK   99  A    between atoms: _278  and  _280
REMARK  100  A    between atoms: _280  and  _281
REMARK  101  A    between atoms: _283  and  _285
REMARK  102  A    between atoms: _285  and  _286
REMARK  103  A    between atoms: _285  and  _288
REMARK  104  A    between atoms: _288  and  _289
REMARK  105  A    between atoms: _292  and  _294
REMARK  106  A    between atoms: _294  and  _295
REMARK  107  A    between atoms: _294  and  _297
REMARK  108  A    between atoms: _297  and  _298
REMARK  109  A    between atoms: _301  and  _303
REMARK  110  A    between atoms: _303  and  _304
REMARK  111  A    between atoms: _307  and  _309
REMARK  112  A    between atoms: _309  and  _310
REMARK  113  A    between atoms: _309  and  _312
REMARK  114  A    between atoms: _312  and  _313
REMARK  115  A    between atoms: _318  and  _319
REMARK  116  A    between atoms: _321  and  _323
REMARK  117  A    between atoms: _323  and  _324
REMARK  118  A    between atoms: _323  and  _326
REMARK  119  A    between atoms: _326  and  _327
REMARK  120  A    between atoms: _327  and  _328
REMARK  121  A    between atoms: _331  and  _333
REMARK  122  A    between atoms: _333  and  _334
REMARK  123  A    between atoms: _333  and  _336
REMARK  124  A    between atoms: _336  and  _337
REMARK  125  A    between atoms: _337  and  _338
REMARK  126  A    between atoms: _338  and  _339
REMARK  127  A    between atoms: _348  and  _350
REMARK  128  A    between atoms: _350  and  _351
REMARK  129  A    between atoms: _353  and  _355
REMARK  130  A    between atoms: _355  and  _356
REMARK  131  A    between atoms: _355  and  _358
REMARK  132  A    between atoms: _358  and  _359
REMARK                            x       y       z     vdW  Elec       q    Type
REMARK                         _______ _______ _______ _____ _____    ______ ____
ROOT
ATOM      1  CA  THR A   1      34.615  68.046  -2.514  0.00  0.00    +0.160 C 
ENDROOT
BRANCH   1   2
ATOM      2  N   THR A   1      36.072  67.982  -2.458  0.00  0.00    -0.237 NA
ATOM      3  H   THR A   1      36.542  67.600  -1.612  0.00  0.00    +0.142 HD
ENDBRANCH   1   2
BRANCH   1   4
ATOM      4  CB  THR A   1      34.065  67.394  -1.243  0.00  0.00    +0.134 C 
ATOM      5  CG2 THR A   1      34.471  65.919  -1.137  0.00  0.00    +0.034 C 
BRANCH   4   6
ATOM      6  OG1 THR A   1      34.588  68.108  -0.124  0.00  0.00    -0.383 OA
ATOM      7  HG1 THR A   1      34.246  67.704   0.713  0.00  0.00    +0.210 HD
ENDBRANCH   4   6
ENDBRANCH   1   4
BRANCH   1   8
ATOM      8  C   THR A   1      34.058  69.483  -2.479  0.00  0.00    +0.227 C 
ATOM      9  O   THR A   1      32.882  69.708  -2.814  0.00  0.00    -0.287 OA
ENDBRANCH   1   8
TORSDOF 4
REMARK  Name = ../refined-set-2016/3dx4/3dx4_pocket.pdb
REMARK  132 active torsions:
REMARK  status: ('A' for Active; 'I' for Inactive)
REMARK    1  A    between atoms: _1  and  _3
REMARK    2  A    between atoms: _14  and  _17
REMARK    3  A    between atoms: _17  and  _18
REMARK    4  A    between atoms: _25  and  _26
REMARK    5  A    between atoms: _33  and  _34
REMARK    6  A    between atoms: _39  and  _41
REMARK    7  A    between atoms: _41  and  _42
REMARK    8  A    between atoms: _44  and  _46
REMARK    9  A    between atoms: _46  and  _47
REMARK   10  A    between atoms: _46  and  _49
REMARK   11  A    between atoms: _49  and  _50
REMARK   12  A    between atoms: _60  and  _62
REMARK   13  A    between atoms: _62  and  _63
REMARK   14  A    between atoms: _62  and  _65
REMARK   15  A    between atoms: _65  and  _66
REMARK   16  A    between atoms: _69  and  _71
REMARK   17  A    between atoms: _71  and  _72
REMARK   18  A    between atoms: _71  and  _74
REMARK   19  A    between atoms: _74  and  _75
REMARK   20  A    between atoms: _80  and  _81
REMARK   21  A    between atoms: _83  and  _85
REMARK   22  A    between atoms: _85  and  _86
REMARK   23  A    between atoms: _85  and  _88
REMARK   24  A    between atoms: _88  and  _89
REMARK   25  A    between atoms: _89  and  _90
REMARK   26  A    between atoms: _93  and  _95
REMARK   27  A    between atoms: _95  and  _96
REMARK   28  A    between atoms: _95  and  _98
REMARK   29  A    between atoms: _98  and  _99
REMARK   30  A    between atoms: _99  and  _100
REMARK   31  A    between atoms: _102  and  _104
REMARK   32  A    between atoms: _104  and  _105
REMARK   33  A    between atoms: _104  and  _107
REMARK   34  A    between atoms: _107  and  _108
REMARK   35  A    between atoms: _111  and  _113
REMARK   36  A    between atoms: _113  and  _114
REMARK   37  A    between atoms: _113  and  _116
REMARK   38  A    between atoms: _116  and  _117
REMARK   39  A    between atoms: _117  and  _119
REMARK   40  A    between atoms: _119  and  ZN_362
REMARK   41  A    between atoms: _121  and  _122
REMARK   42  A    between atoms: _127  and  _129
REMARK   43  A    between atoms: _129  and  _130
REMARK   44  A    between atoms: _129  and  _132
REMARK   45  A    between atoms: _132  and  _133
REMARK   46  A    between atoms: _139  and  _141
REMARK   47  A    between atoms: _141  and  _142
REMARK   48  A    between atoms: _141  and  _144
REMARK   49  A    between atoms: _144  and  _145
REMARK   50  A    between atoms: _145  and  _146
REMARK   51  A    between atoms: _146  and  _147
REMARK   52  A    between atoms: _156  and  _158
REMARK   53  A    between atoms: _158  and  _159
REMARK   54  A    between atoms: _158  and  _161
REMARK   55  A    between atoms: _161  and  _162
REMARK   56  A    between atoms: _164  and  _166
REMARK   57  A    between atoms: _166  and  _167
REMARK   58  A    between atoms: _166  and  _169
REMARK   59  A    between atoms: _169  and  _170
REMARK   60  A    between atoms: _175  and  _176
REMARK   61  A    between atoms: _178  and  _180
REMARK   62  A    between atoms: _180  and  _181
REMARK   63  A    between atoms: _180  and  _183
REMARK   64  A    between atoms: _183  and  _184
REMARK   65  A    between atoms: _187  and  _189
REMARK   66  A    between atoms: _189  and  _190
REMARK   67  A    between atoms: _189  and  _192
REMARK   68  A    between atoms: _192  and  _193
REMARK   69  A    between atoms: _196  and  _198
REMARK   70  A    between atoms: _198  and  _199
REMARK   71  A    between atoms: _198  and  _201
REMARK   72  A    between atoms: _201  and  _202
REMARK   73  A    between atoms: _208  and  _210
REMARK   74  A    between atoms: _210  and  _211
REMARK   75  A    between atoms: _210  and  _213
REMARK   76  A    between atoms: _213  and  _214
REMARK   77  A    between atoms: _219  and  _220
REMARK   78  A    between atoms: _222  and  _224
REMARK   79  A    between atoms: _224  and  _225
REMARK   80  A    between atoms: _224  and  _227
REMARK   81  A    between atoms: _227  and  _228
REMARK   82  A    between atoms: _231  and  _233
REMARK   83  A    between atoms: _233  and  _234
REMARK   84  A    between atoms: _233  and  _236
REMARK   85  A    between atoms: _236  and  _237
REMARK   86  A    between atoms: _247  and  _249
REMARK   87  A    between atoms: _249  and  _250
REMARK   88  A    between atoms: _249  and  _252
REMARK   89  A    between atoms: _252  and  _253
REMARK   90  A    between atoms: _258  and  _260
REMARK   91  A    between atoms: _260  and  _261
REMARK   92  A    between atoms: _260  and  _263
REMARK   93  A    between atoms: _263  and  _264
REMARK   94  A    between atoms: _268  and  ZN_362
REMARK   95  A    between atoms: _269  and  _271
REMARK   96  A    between atoms: _271  and  _272
REMARK   97  A    between atoms: _271  and  _274
REMARK   98  A    between atoms: _274  and  _275
REMARK   99  A    between atoms: _278  and  _280
REMARK  100  A    between atoms: _280  and  _281
REMARK  101  A    between atoms: _283  and  _285
REMARK  102  A    between atoms: _285  and  _286
REMARK  103  A    between atoms: _285  and  _288
REMARK  104  A    between atoms: _288  and  _289
REMARK  105  A    between atoms: _292  and  _294
REMARK  106  A    between atoms: _294  and  _295
REMARK  107  A    between atoms: _294  and  _297
REMARK  108  A    between atoms: _297  and  _298
REMARK  109  A    between atoms: _301  and  _303
REMARK  110  A    between atoms: _303  and  _304
REMARK  111  A    between atoms: _307  and  _309
REMARK  112  A    between atoms: _309  and  _310
REMARK  113  A    between atoms: _309  and  _312
REMARK  114  A    between atoms: _312  and  _313
REMARK  115  A    between atoms: _318  and  _319
REMARK  116  A    between atoms: _321  and  _323
REMARK  117  A    between atoms: _323  and  _324
REMARK  118  A    between atoms: _323  and  _326
REMARK  119  A    between atoms: _326  and  _327
REMARK  120  A    between atoms: _327  and  _328
REMARK  121  A    between atoms: _331  and  _333
REMARK  122  A    between atoms: _333  and  _334
REMARK  123  A    between atoms: _333  and  _336
REMARK  124  A    between atoms: _336  and  _337
REMARK  125  A    between atoms: _337  and  _338
REMARK  126  A    between atoms: _338  and  _339
REMARK  127  A    between atoms: _348  and  _350
REMARK  128  A    between atoms: _350  and  _351
REMARK  129  A    between atoms: _353  and  _355
REMARK  130  A    between atoms: _355  and  _356
REMARK  131  A    between atoms: _355  and  _358
REMARK  132  A    between atoms: _358  and  _359
REMARK                            x       y       z     vdW  Elec       q    Type
REMARK                         _______ _______ _______ _____ _____    ______ ____
ROOT
ATOM      1  C   THR A   1      33.278  72.050   2.564  0.00  0.00    +0.241 C 
ATOM      2  O   THR A   1      32.717  71.896   3.655  0.00  0.00    -0.274 OA
ATOM      3  N   ALA A   2      34.400  72.776   2.424  0.00  0.00    -0.298 N 
ATOM      4  H   ALA A   2      34.822  72.882   1.479  0.00  0.00    +0.150 HD
ENDROOT
BRANCH   3   5
ATOM      5  CA  ALA A   2      35.047  73.426   3.577  0.00  0.00    +0.137 C 
ATOM      6  CB  ALA A   2      36.586  73.199   3.511  0.00  0.00    +0.030 C 
BRANCH   5   7
ATOM      7  C   ALA A   2      34.715  74.918   3.614  0.00  0.00    +0.227 C 
ATOM      8  O   ALA A   2      34.219  75.495   2.646  0.00  0.00    -0.286 OA
ENDBRANCH   5   7
ENDBRANCH   3   5
BRANCH   1   9
ATOM      9  CA  THR A   1      32.645  71.428   1.319  0.00  0.00    +0.172 C 
BRANCH   9  10
ATOM     10  N   THR A   1      33.549  71.316   0.201  0.00  0.00    -0.236 NA
ATOM     11  H   THR A   1      34.345  70.648   0.251  0.00  0.00    +0.142 HD
ENDBRANCH   9  10
BRANCH   9  12
ATOM     12  CB  THR A   1      32.012  70.063   1.678  0.00  0.00    +0.135 C 
ATOM     13  CG2 THR A   1      31.176  69.539   0.509  0.00  0.00    +0.034 C 
BRANCH  12  14
ATOM     14  OG1 THR A   1      33.040  69.106   1.973  0.00  0.00    -0.383 OA
ATOM     15  HG1 THR A   1      33.624  68.996   1.181  0.00  0.00    +0.210 HD
ENDBRANCH  12  14
ENDBRANCH   9  12
ENDBRANCH   1   9
TORSDOF 6
REMARK  Name = ../refined-set-2016/3dx4/3dx4_pocket.pdb
REMARK  132 active torsions:
REMARK  status: ('A' for Active; 'I' for Inactive)
REMARK    1  A    between atoms: _1  and  _3
REMARK    2  A    between atoms: _14  and  _17
REMARK    3  A    between atoms: _17  and  _18
REMARK    4  A    between atoms: _25  and  _26
REMARK    5  A    between atoms: _33  and  _34
REMARK    6  A    between atoms: _39  and  _41
REMARK    7  A    between atoms: _41  and  _42
REMARK    8  A    between atoms: _44  and  _46
REMARK    9  A    between atoms: _46  and  _47
REMARK   10  A    between atoms: _46  and  _49
REMARK   11  A    between atoms: _49  and  _50
REMARK   12  A    between atoms: _60  and  _62
REMARK   13  A    between atoms: _62  and  _63
REMARK   14  A    between atoms: _62  and  _65
REMARK   15  A    between atoms: _65  and  _66
REMARK   16  A    between atoms: _69  and  _71
REMARK   17  A    between atoms: _71  and  _72
REMARK   18  A    between atoms: _71  and  _74
REMARK   19  A    between atoms: _74  and  _75
REMARK   20  A    between atoms: _80  and  _81
REMARK   21  A    between atoms: _83  and  _85
REMARK   22  A    between atoms: _85  and  _86
REMARK   23  A    between atoms: _85  and  _88
REMARK   24  A    between atoms: _88  and  _89
REMARK   25  A    between atoms: _89  and  _90
REMARK   26  A    between atoms: _93  and  _95
REMARK   27  A    between atoms: _95  and  _96
REMARK   28  A    between atoms: _95  and  _98
REMARK   29  A    between atoms: _98  and  _99
REMARK   30  A    between atoms: _99  and  _100
REMARK   31  A    between atoms: _102  and  _104
REMARK   32  A    between atoms: _104  and  _105
REMARK   33  A    between atoms: _104  and  _107
REMARK   34  A    between atoms: _107  and  _108
REMARK   35  A    between atoms: _111  and  _113
REMARK   36  A    between atoms: _113  and  _114
REMARK   37  A    between atoms: _113  and  _116
REMARK   38  A    between atoms: _116  and  _117
REMARK   39  A    between atoms: _117  and  _119
REMARK   40  A    between atoms: _119  and  ZN_362
REMARK   41  A    between atoms: _121  and  _122
REMARK   42  A    between atoms: _127  and  _129
REMARK   43  A    between atoms: _129  and  _130
REMARK   44  A    between atoms: _129  and  _132
REMARK   45  A    between atoms: _132  and  _133
REMARK   46  A    between atoms: _139  and  _141
REMARK   47  A    between atoms: _141  and  _142
REMARK   48  A    between atoms: _141  and  _144
REMARK   49  A    between atoms: _144  and  _145
REMARK   50  A    between atoms: _145  and  _146
REMARK   51  A    between atoms: _146  and  _147
REMARK   52  A    between atoms: _156  and  _158
REMARK   53  A    between atoms: _158  and  _159
REMARK   54  A    between atoms: _158  and  _161
REMARK   55  A    between atoms: _161  and  _162
REMARK   56  A    between atoms: _164  and  _166
REMARK   57  A    between atoms: _166  and  _167
REMARK   58  A    between atoms: _166  and  _169
REMARK   59  A    between atoms: _169  and  _170
REMARK   60  A    between atoms: _175  and  _176
REMARK   61  A    between atoms: _178  and  _180
REMARK   62  A    between atoms: _180  and  _181
REMARK   63  A    between atoms: _180  and  _183
REMARK   64  A    between atoms: _183  and  _184
REMARK   65  A    between atoms: _187  and  _189
REMARK   66  A    between atoms: _189  and  _190
REMARK   67  A    between atoms: _189  and  _192
REMARK   68  A    between atoms: _192  and  _193
REMARK   69  A    between atoms: _196  and  _198
REMARK   70  A    between atoms: _198  and  _199
REMARK   71  A    between atoms: _198  and  _201
REMARK   72  A    between atoms: _201  and  _202
REMARK   73  A    between atoms: _208  and  _210
REMARK   74  A    between atoms: _210  and  _211
REMARK   75  A    between atoms: _210  and  _213
REMARK   76  A    between atoms: _213  and  _214
REMARK   77  A    between atoms: _219  and  _220
REMARK   78  A    between atoms: _222  and  _224
REMARK   79  A    between atoms: _224  and  _225
REMARK   80  A    between atoms: _224  and  _227
REMARK   81  A    between atoms: _227  and  _228
REMARK   82  A    between atoms: _231  and  _233
REMARK   83  A    between atoms: _233  and  _234
REMARK   84  A    between atoms: _233  and  _236
REMARK   85  A    between atoms: _236  and  _237
REMARK   86  A    between atoms: _247  and  _249
REMARK   87  A    between atoms: _249  and  _250
REMARK   88  A    between atoms: _249  and  _252
REMARK   89  A    between atoms: _252  and  _253
REMARK   90  A    between atoms: _258  and  _260
REMARK   91  A    between atoms: _260  and  _261
REMARK   92  A    between atoms: _260  and  _263
REMARK   93  A    between atoms: _263  and  _264
REMARK   94  A    between atoms: _268  and  ZN_362
REMARK   95  A    between atoms: _269  and  _271
REMARK   96  A    between atoms: _271  and  _272
REMARK   97  A    between atoms: _271  and  _274
REMARK   98  A    between atoms: _274  and  _275
REMARK   99  A    between atoms: _278  and  _280
REMARK  100  A    between atoms: _280  and  _281
REMARK  101  A    between atoms: _283  and  _285
REMARK  102  A    between atoms: _285  and  _286
REMARK  103  A    between atoms: _285  and  _288
REMARK  104  A    between atoms: _288  and  _289
REMARK  105  A    between atoms: _292  and  _294
REMARK  106  A    between atoms: _294  and  _295
REMARK  107  A    between atoms: _294  and  _297
REMARK  108  A    between atoms: _297  and  _298
REMARK  109  A    between atoms: _301  and  _303
REMARK  110  A    between atoms: _303  and  _304
REMARK  111  A    between atoms: _307  and  _309
REMARK  112  A    between atoms: _309  and  _310
REMARK  113  A    between atoms: _309  and  _312
REMARK  114  A    between atoms: _312  and  _313
REMARK  115  A    between atoms: _318  and  _319
REMARK  116  A    between atoms: _321  and  _323
REMARK  117  A    between atoms: _323  and  _324
REMARK  118  A    between atoms: _323  and  _326
REMARK  119  A    between atoms: _326  and  _327
REMARK  120  A    between atoms: _327  and  _328
REMARK  121  A    between atoms: _331  and  _333
REMARK  122  A    between atoms: _333  and  _334
REMARK  123  A    between atoms: _333  and  _336
REMARK  124  A    between atoms: _336  and  _337
REMARK  125  A    between atoms: _337  and  _338
REMARK  126  A    between atoms: _338  and  _339
REMARK  127  A    between atoms: _348  and  _350
REMARK  128  A    between atoms: _350  and  _351
REMARK  129  A    between atoms: _353  and  _355
REMARK  130  A    between atoms: _355  and  _356
REMARK  131  A    between atoms: _355  and  _358
REMARK  132  A    between atoms: _358  and  _359
REMARK                            x       y       z     vdW  Elec       q    Type
REMARK                         _______ _______ _______ _____ _____    ______ ____
ROOT
ATOM      1  CG  TYR A   1      27.462  68.990   2.072  0.00  0.00    -0.020 A 
ATOM      2  CD2 TYR A   1      27.418  70.122   2.877  0.00  0.00    -0.001 A 
ATOM      3  CE2 TYR A   1      28.373  70.351   3.884  0.00  0.00    +0.036 A 
ATOM      4  CZ  TYR A   1      29.363  69.387   4.110  0.00  0.00    +0.134 A 
ATOM      5  CE1 TYR A   1      29.396  68.256   3.316  0.00  0.00    +0.036 A 
ATOM      6  CD1 TYR A   1      28.454  68.045   2.339  0.00  0.00    -0.001 A 
ENDROOT
BRANCH   4   7
ATOM      7  OH  TYR A   1      30.254  69.595   5.121  0.00  0.00    -0.506 OA
ATOM      8  HH  TYR A   1      30.178  68.862   5.782  0.00  0.00    +0.292 HD
ENDBRANCH   4   7
BRANCH   1   9
ATOM      9  CB  TYR A   1      26.408  68.734   1.018  0.00  0.00    +0.051 C 
BRANCH   9  10
ATOM     10  CA  TYR A   1      26.686  69.360  -0.338  0.00  0.00    +0.137 C 
BRANCH  10  11
ATOM     11  N   TYR A   1      26.912  70.825  -0.199  0.00  0.00    -0.239 NA
ATOM     12  H   TYR A   1      26.401  71.349   0.540  0.00  0.00    +0.142 HD
ENDBRANCH  10  11
BRANCH  10  13
ATOM     13  C   TYR A   1      25.511  69.013  -1.243  0.00  0.00    +0.224 C 
ATOM     14  O   TYR A   1      25.635  68.213  -2.158  0.00  0.00    -0.287 OA
ENDBRANCH  10  13
ENDBRANCH   9  10
ENDBRANCH   1   9
TORSDOF 5
REMARK  Name = ../refined-set-2016/3dx4/3dx4_pocket.pdb
REMARK  132 active torsions:
REMARK  status: ('A' for Active; 'I' for Inactive)
REMARK    1  A    between atoms: _1  and  _3
REMARK    2  A    between atoms: _14  and  _17
REMARK    3  A    between atoms: _17  and  _18
REMARK    4  A    between atoms: _25  and  _26
REMARK    5  A    between atoms: _33  and  _34
REMARK    6  A    between atoms: _39  and  _41
REMARK    7  A    between atoms: _41  and  _42
REMARK    8  A    between atoms: _44  and  _46
REMARK    9  A    between atoms: _46  and  _47
REMARK   10  A    between atoms: _46  and  _49
REMARK   11  A    between atoms: _49  and  _50
REMARK   12  A    between atoms: _60  and  _62
REMARK   13  A    between atoms: _62  and  _63
REMARK   14  A    between atoms: _62  and  _65
REMARK   15  A    between atoms: _65  and  _66
REMARK   16  A    between atoms: _69  and  _71
REMARK   17  A    between atoms: _71  and  _72
REMARK   18  A    between atoms: _71  and  _74
REMARK   19  A    between atoms: _74  and  _75
REMARK   20  A    between atoms: _80  and  _81
REMARK   21  A    between atoms: _83  and  _85
REMARK   22  A    between atoms: _85  and  _86
REMARK   23  A    between atoms: _85  and  _88
REMARK   24  A    between atoms: _88  and  _89
REMARK   25  A    between atoms: _89  and  _90
REMARK   26  A    between atoms: _93  and  _95
REMARK   27  A    between atoms: _95  and  _96
REMARK   28  A    between atoms: _95  and  _98
REMARK   29  A    between atoms: _98  and  _99
REMARK   30  A    between atoms: _99  and  _100
REMARK   31  A    between atoms: _102  and  _104
REMARK   32  A    between atoms: _104  and  _105
REMARK   33  A    between atoms: _104  and  _107
REMARK   34  A    between atoms: _107  and  _108
REMARK   35  A    between atoms: _111  and  _113
REMARK   36  A    between atoms: _113  and  _114
REMARK   37  A    between atoms: _113  and  _116
REMARK   38  A    between atoms: _116  and  _117
REMARK   39  A    between atoms: _117  and  _119
REMARK   40  A    between atoms: _119  and  ZN_362
REMARK   41  A    between atoms: _121  and  _122
REMARK   42  A    between atoms: _127  and  _129
REMARK   43  A    between atoms: _129  and  _130
REMARK   44  A    between atoms: _129  and  _132
REMARK   45  A    between atoms: _132  and  _133
REMARK   46  A    between atoms: _139  and  _141
REMARK   47  A    between atoms: _141  and  _142
REMARK   48  A    between atoms: _141  and  _144
REMARK   49  A    between atoms: _144  and  _145
REMARK   50  A    between atoms: _145  and  _146
REMARK   51  A    between atoms: _146  and  _147
REMARK   52  A    between atoms: _156  and  _158
REMARK   53  A    between atoms: _158  and  _159
REMARK   54  A    between atoms: _158  and  _161
REMARK   55  A    between atoms: _161  and  _162
REMARK   56  A    between atoms: _164  and  _166
REMARK   57  A    between atoms: _166  and  _167
REMARK   58  A    between atoms: _166  and  _169
REMARK   59  A    between atoms: _169  and  _170
REMARK   60  A    between atoms: _175  and  _176
REMARK   61  A    between atoms: _178  and  _180
REMARK   62  A    between atoms: _180  and  _181
REMARK   63  A    between atoms: _180  and  _183
REMARK   64  A    between atoms: _183  and  _184
REMARK   65  A    between atoms: _187  and  _189
REMARK   66  A    between atoms: _189  and  _190
REMARK   67  A    between atoms: _189  and  _192
REMARK   68  A    between atoms: _192  and  _193
REMARK   69  A    between atoms: _196  and  _198
REMARK   70  A    between atoms: _198  and  _199
REMARK   71  A    between atoms: _198  and  _201
REMARK   72  A    between atoms: _201  and  _202
REMARK   73  A    between atoms: _208  and  _210
REMARK   74  A    between atoms: _210  and  _211
REMARK   75  A    between atoms: _210  and  _213
REMARK   76  A    between atoms: _213  and  _214
REMARK   77  A    between atoms: _219  and  _220
REMARK   78  A    between atoms: _222  and  _224
REMARK   79  A    between atoms: _224  and  _225
REMARK   80  A    between atoms: _224  and  _227
REMARK   81  A    between atoms: _227  and  _228
REMARK   82  A    between atoms: _231  and  _233
REMARK   83  A    between atoms: _233  and  _234
REMARK   84  A    between atoms: _233  and  _236
REMARK   85  A    between atoms: _236  and  _237
REMARK   86  A    between atoms: _247  and  _249
REMARK   87  A    between atoms: _249  and  _250
REMARK   88  A    between atoms: _249  and  _252
REMARK   89  A    between atoms: _252  and  _253
REMARK   90  A    between atoms: _258  and  _260
REMARK   91  A    between atoms: _260  and  _261
REMARK   92  A    between atoms: _260  and  _263
REMARK   93  A    between atoms: _263  and  _264
REMARK   94  A    between atoms: _268  and  ZN_362
REMARK   95  A    between atoms: _269  and  _271
REMARK   96  A    between atoms: _271  and  _272
REMARK   97  A    between atoms: _271  and  _274
REMARK   98  A    between atoms: _274  and  _275
REMARK   99  A    between atoms: _278  and  _280
REMARK  100  A    between atoms: _280  and  _281
REMARK  101  A    between atoms: _283  and  _285
REMARK  102  A    between atoms: _285  and  _286
REMARK  103  A    between atoms: _285  and  _288
REMARK  104  A    between atoms: _288  and  _289
REMARK  105  A    between atoms: _292  and  _294
REMARK  106  A    between atoms: _294  and  _295
REMARK  107  A    between atoms: _294  and  _297
REMARK  108  A    between atoms: _297  and  _298
REMARK  109  A    between atoms: _301  and  _303
REMARK  110  A    between atoms: _303  and  _304
REMARK  111  A    between atoms: _307  and  _309
REMARK  112  A    between atoms: _309  and  _310
REMARK  113  A    between atoms: _309  and  _312
REMARK  114  A    between atoms: _312  and  _313
REMARK  115  A    between atoms: _318  and  _319
REMARK  116  A    between atoms: _321  and  _323
REMARK  117  A    between atoms: _323  and  _324
REMARK  118  A    between atoms: _323  and  _326
REMARK  119  A    between atoms: _326  and  _327
REMARK  120  A    between atoms: _327  and  _328
REMARK  121  A    between atoms: _331  and  _333
REMARK  122  A    between atoms: _333  and  _334
REMARK  123  A    between atoms: _333  and  _336
REMARK  124  A    between atoms: _336  and  _337
REMARK  125  A    between atoms: _337  and  _338
REMARK  126  A    between atoms: _338  and  _339
REMARK  127  A    between atoms: _348  and  _350
REMARK  128  A    between atoms: _350  and  _351
REMARK  129  A    between atoms: _353  and  _355
REMARK  130  A    between atoms: _355  and  _356
REMARK  131  A    between atoms: _355  and  _358
REMARK  132  A    between atoms: _358  and  _359
REMARK                            x       y       z     vdW  Elec       q    Type
REMARK                         _______ _______ _______ _____ _____    ______ ____
ROOT
ATOM      1  CA  ARG A   2      25.154  69.828   7.335  0.00  0.00    +0.149 C 
ENDROOT
BRANCH   1   4
ATOM      2  C   GLU A   1      23.032  71.002   7.529  0.00  0.00    +0.238 C 
ATOM      3  O   GLU A   1      22.532  70.074   8.158  0.00  0.00    -0.274 OA
ATOM      4  N   ARG A   2      24.264  70.953   7.024  0.00  0.00    -0.297 N 
ATOM      5  H   ARG A   2      24.598  71.718   6.404  0.00  0.00    +0.150 HD
BRANCH   2   6
ATOM      6  CA  GLU A   1      22.245  72.263   7.288  0.00  0.00    +0.145 C 
BRANCH   6   7
ATOM      7  N   GLU A   1      22.547  72.942   6.023  0.00  0.00    -0.238 NA
ATOM      8  H   GLU A   1      22.926  73.910   6.053  0.00  0.00    +0.142 HD
ENDBRANCH   6   7
BRANCH   6   9
ATOM      9  CB  GLU A   1      20.766  71.847   7.365  0.00  0.00    +0.038 C 
BRANCH   9  10
ATOM     10  CG  GLU A   1      19.730  72.910   7.157  0.00  0.00    +0.116 C 
BRANCH  10  11
ATOM     11  CD  GLU A   1      18.342  72.329   7.382  0.00  0.00    +0.365 C 
ATOM     12  OE2 GLU A   1      17.690  72.784   8.331  0.00  0.00    -0.246 OA
ATOM     13  OE1 GLU A   1      17.923  71.382   6.647  0.00  0.00    -0.246 OA
ENDBRANCH  10  11
ENDBRANCH   9  10
ENDBRANCH   6   9
ENDBRANCH   2   6
ENDBRANCH   1   4
BRANCH   1  14
ATOM     14  C   ARG A   2      26.355  70.261   8.169  0.00  0.00    +0.241 C 
ATOM     15  N   GLY A   3      26.319  71.474   8.714  0.00  0.00    -0.295 N 
ATOM     16  H   GLY A   3      25.534  72.113   8.473  0.00  0.00    +0.150 HD
ATOM     17  O   ARG A   2      27.305  69.490   8.335  0.00  0.00    -0.273 OA
BRANCH  15  18
ATOM     18  CA  GLY A   3      27.345  71.932   9.636  0.00  0.00    +0.176 C 
BRANCH  18  19
ATOM     19  C   GLY A   3      28.404  72.848   9.078  0.00  0.00    +0.243 C 
ATOM     20  O   GLY A   3      29.250  73.367   9.836  0.00  0.00    -0.273 OA
ATOM     21  N   LEU A   4      28.353  73.085   7.771  0.00  0.00    -0.298 N 
ATOM     22  H   LEU A   4      27.603  72.664   7.187  0.00  0.00    +0.150 HD
BRANCH  21  23
ATOM     23  CA  LEU A   4      29.355  73.935   7.176  0.00  0.00    +0.137 C 
BRANCH  23  24
ATOM     24  C   LEU A   4      29.156  75.390   7.623  0.00  0.00    +0.227 C 
ATOM     25  O   LEU A   4      30.136  76.115   7.806  0.00  0.00    -0.286 OA
ENDBRANCH  23  24
BRANCH  23  26
ATOM     26  CB  LEU A   4      29.317  73.782   5.654  0.00  0.00    +0.028 C 
BRANCH  26  27
ATOM     27  CG  LEU A   4      30.142  74.759   4.821  0.00  0.00    +0.002 C 
ATOM     28  CD2 LEU A   4      31.640  74.746   5.231  0.00  0.00    +0.000 C 
ATOM     29  CD1 LEU A   4      29.991  74.463   3.347  0.00  0.00    +0.000 C 
ENDBRANCH  26  27
ENDBRANCH  23  26
ENDBRANCH  21  23
ENDBRANCH  18  19
ENDBRANCH  15  18
ENDBRANCH   1  14
BRANCH   1  30
ATOM     30  CB  ARG A   2      25.610  69.090   6.060  0.00  0.00    +0.033 C 
BRANCH  30  31
ATOM     31  CG  ARG A   2      24.457  68.534   5.245  0.00  0.00    +0.045 C 
BRANCH  31  32
ATOM     32  CD  ARG A   2      23.628  67.571   6.088  0.00  0.00    +0.174 C 
BRANCH  32  33
ATOM     33  NE  ARG A   2      22.584  66.812   5.374  0.00  0.00    -0.265 N 
ATOM     34  HE  ARG A   2      22.799  65.829   5.112  0.00  0.00    +0.259 HD
ATOM     35  CZ  ARG A   2      21.382  67.293   5.038  0.00  0.00    +0.342 C 
ATOM     36  NH2 ARG A   2      21.113  68.587   5.230  0.00  0.00    -0.292 N 
ATOM     37 HH21 ARG A   2      21.836  69.213   5.638  0.00  0.00    +0.255 HD
ATOM     38 HH22 ARG A   2      20.181  68.968   4.971  0.00  0.00    +0.255 HD
ATOM     39  NH1 ARG A   2      20.469  66.504   4.453  0.00  0.00    -0.292 N 
ATOM     40 HH11 ARG A   2      20.692  65.508   4.256  0.00  0.00    +0.255 HD
ATOM     41 HH12 ARG A   2      19.538  66.889   4.196  0.00  0.00    +0.255 HD
ENDBRANCH  32  33
ENDBRANCH  31  32
ENDBRANCH  30  31
ENDBRANCH   1  30
TORSDOF 17
REMARK  Name = ../refined-set-2016/3dx4/3dx4_pocket.pdb
REMARK  132 active torsions:
REMARK  status: ('A' for Active; 'I' for Inactive)
REMARK    1  A    between atoms: _1  and  _3
REMARK    2  A    between atoms: _14  and  _17
REMARK    3  A    between atoms: _17  and  _18
REMARK    4  A    between atoms: _25  and  _26
REMARK    5  A    between atoms: _33  and  _34
REMARK    6  A    between atoms: _39  and  _41
REMARK    7  A    between atoms: _41  and  _42
REMARK    8  A    between atoms: _44  and  _46
REMARK    9  A    between atoms: _46  and  _47
REMARK   10  A    between atoms: _46  and  _49
REMARK   11  A    between atoms: _49  and  _50
REMARK   12  A    between atoms: _60  and  _62
REMARK   13  A    between atoms: _62  and  _63
REMARK   14  A    between atoms: _62  and  _65
REMARK   15  A    between atoms: _65  and  _66
REMARK   16  A    between atoms: _69  and  _71
REMARK   17  A    between atoms: _71  and  _72
REMARK   18  A    between atoms: _71  and  _74
REMARK   19  A    between atoms: _74  and  _75
REMARK   20  A    between atoms: _80  and  _81
REMARK   21  A    between atoms: _83  and  _85
REMARK   22  A    between atoms: _85  and  _86
REMARK   23  A    between atoms: _85  and  _88
REMARK   24  A    between atoms: _88  and  _89
REMARK   25  A    between atoms: _89  and  _90
REMARK   26  A    between atoms: _93  and  _95
REMARK   27  A    between atoms: _95  and  _96
REMARK   28  A    between atoms: _95  and  _98
REMARK   29  A    between atoms: _98  and  _99
REMARK   30  A    between atoms: _99  and  _100
REMARK   31  A    between atoms: _102  and  _104
REMARK   32  A    between atoms: _104  and  _105
REMARK   33  A    between atoms: _104  and  _107
REMARK   34  A    between atoms: _107  and  _108
REMARK   35  A    between atoms: _111  and  _113
REMARK   36  A    between atoms: _113  and  _114
REMARK   37  A    between atoms: _113  and  _116
REMARK   38  A    between atoms: _116  and  _117
REMARK   39  A    between atoms: _117  and  _119
REMARK   40  A    between atoms: _119  and  ZN_362
REMARK   41  A    between atoms: _121  and  _122
REMARK   42  A    between atoms: _127  and  _129
REMARK   43  A    between atoms: _129  and  _130
REMARK   44  A    between atoms: _129  and  _132
REMARK   45  A    between atoms: _132  and  _133
REMARK   46  A    between atoms: _139  and  _141
REMARK   47  A    between atoms: _141  and  _142
REMARK   48  A    between atoms: _141  and  _144
REMARK   49  A    between atoms: _144  and  _145
REMARK   50  A    between atoms: _145  and  _146
REMARK   51  A    between atoms: _146  and  _147
REMARK   52  A    between atoms: _156  and  _158
REMARK   53  A    between atoms: _158  and  _159
REMARK   54  A    between atoms: _158  and  _161
REMARK   55  A    between atoms: _161  and  _162
REMARK   56  A    between atoms: _164  and  _166
REMARK   57  A    between atoms: _166  and  _167
REMARK   58  A    between atoms: _166  and  _169
REMARK   59  A    between atoms: _169  and  _170
REMARK   60  A    between atoms: _175  and  _176
REMARK   61  A    between atoms: _178  and  _180
REMARK   62  A    between atoms: _180  and  _181
REMARK   63  A    between atoms: _180  and  _183
REMARK   64  A    between atoms: _183  and  _184
REMARK   65  A    between atoms: _187  and  _189
REMARK   66  A    between atoms: _189  and  _190
REMARK   67  A    between atoms: _189  and  _192
REMARK   68  A    between atoms: _192  and  _193
REMARK   69  A    between atoms: _196  and  _198
REMARK   70  A    between atoms: _198  and  _199
REMARK   71  A    between atoms: _198  and  _201
REMARK   72  A    between atoms: _201  and  _202
REMARK   73  A    between atoms: _208  and  _210
REMARK   74  A    between atoms: _210  and  _211
REMARK   75  A    between atoms: _210  and  _213
REMARK   76  A    between atoms: _213  and  _214
REMARK   77  A    between atoms: _219  and  _220
REMARK   78  A    between atoms: _222  and  _224
REMARK   79  A    between atoms: _224  and  _225
REMARK   80  A    between atoms: _224  and  _227
REMARK   81  A    between atoms: _227  and  _228
REMARK   82  A    between atoms: _231  and  _233
REMARK   83  A    between atoms: _233  and  _234
REMARK   84  A    between atoms: _233  and  _236
REMARK   85  A    between atoms: _236  and  _237
REMARK   86  A    between atoms: _247  and  _249
REMARK   87  A    between atoms: _249  and  _250
REMARK   88  A    between atoms: _249  and  _252
REMARK   89  A    between atoms: _252  and  _253
REMARK   90  A    between atoms: _258  and  _260
REMARK   91  A    between atoms: _260  and  _261
REMARK   92  A    between atoms: _260  and  _263
REMARK   93  A    between atoms: _263  and  _264
REMARK   94  A    between atoms: _268  and  ZN_362
REMARK   95  A    between atoms: _269  and  _271
REMARK   96  A    between atoms: _271  and  _272
REMARK   97  A    between atoms: _271  and  _274
REMARK   98  A    between atoms: _274  and  _275
REMARK   99  A    between atoms: _278  and  _280
REMARK  100  A    between atoms: _280  and  _281
REMARK  101  A    between atoms: _283  and  _285
REMARK  102  A    between atoms: _285  and  _286
REMARK  103  A    between atoms: _285  and  _288
REMARK  104  A    between atoms: _288  and  _289
REMARK  105  A    between atoms: _292  and  _294
REMARK  106  A    between atoms: _294  and  _295
REMARK  107  A    between atoms: _294  and  _297
REMARK  108  A    between atoms: _297  and  _298
REMARK  109  A    between atoms: _301  and  _303
REMARK  110  A    between atoms: _303  and  _304
REMARK  111  A    between atoms: _307  and  _309
REMARK  112  A    between atoms: _309  and  _310
REMARK  113  A    between atoms: _309  and  _312
REMARK  114  A    between atoms: _312  and  _313
REMARK  115  A    between atoms: _318  and  _319
REMARK  116  A    between atoms: _321  and  _323
REMARK  117  A    between atoms: _323  and  _324
REMARK  118  A    between atoms: _323  and  _326
REMARK  119  A    between atoms: _326  and  _327
REMARK  120  A    between atoms: _327  and  _328
REMARK  121  A    between atoms: _331  and  _333
REMARK  122  A    between atoms: _333  and  _334
REMARK  123  A    between atoms: _333  and  _336
REMARK  124  A    between atoms: _336  and  _337
REMARK  125  A    between atoms: _337  and  _338
REMARK  126  A    between atoms: _338  and  _339
REMARK  127  A    between atoms: _348  and  _350
REMARK  128  A    between atoms: _350  and  _351
REMARK  129  A    between atoms: _353  and  _355
REMARK  130  A    between atoms: _355  and  _356
REMARK  131  A    between atoms: _355  and  _358
REMARK  132  A    between atoms: _358  and  _359
REMARK                            x       y       z     vdW  Elec       q    Type
REMARK                         _______ _______ _______ _____ _____    ______ ____
ROOT
ATOM      1  O   HOH     1      25.948  63.131  13.516  0.00  0.00    +0.000 OA
ENDROOT
TORSDOF 0
REMARK  Name = ../refined-set-2016/3dx4/3dx4_pocket.pdb
REMARK  132 active torsions:
REMARK  status: ('A' for Active; 'I' for Inactive)
REMARK    1  A    between atoms: _1  and  _3
REMARK    2  A    between atoms: _14  and  _17
REMARK    3  A    between atoms: _17  and  _18
REMARK    4  A    between atoms: _25  and  _26
REMARK    5  A    between atoms: _33  and  _34
REMARK    6  A    between atoms: _39  and  _41
REMARK    7  A    between atoms: _41  and  _42
REMARK    8  A    between atoms: _44  and  _46
REMARK    9  A    between atoms: _46  and  _47
REMARK   10  A    between atoms: _46  and  _49
REMARK   11  A    between atoms: _49  and  _50
REMARK   12  A    between atoms: _60  and  _62
REMARK   13  A    between atoms: _62  and  _63
REMARK   14  A    between atoms: _62  and  _65
REMARK   15  A    between atoms: _65  and  _66
REMARK   16  A    between atoms: _69  and  _71
REMARK   17  A    between atoms: _71  and  _72
REMARK   18  A    between atoms: _71  and  _74
REMARK   19  A    between atoms: _74  and  _75
REMARK   20  A    between atoms: _80  and  _81
REMARK   21  A    between atoms: _83  and  _85
REMARK   22  A    between atoms: _85  and  _86
REMARK   23  A    between atoms: _85  and  _88
REMARK   24  A    between atoms: _88  and  _89
REMARK   25  A    between atoms: _89  and  _90
REMARK   26  A    between atoms: _93  and  _95
REMARK   27  A    between atoms: _95  and  _96
REMARK   28  A    between atoms: _95  and  _98
REMARK   29  A    between atoms: _98  and  _99
REMARK   30  A    between atoms: _99  and  _100
REMARK   31  A    between atoms: _102  and  _104
REMARK   32  A    between atoms: _104  and  _105
REMARK   33  A    between atoms: _104  and  _107
REMARK   34  A    between atoms: _107  and  _108
REMARK   35  A    between atoms: _111  and  _113
REMARK   36  A    between atoms: _113  and  _114
REMARK   37  A    between atoms: _113  and  _116
REMARK   38  A    between atoms: _116  and  _117
REMARK   39  A    between atoms: _117  and  _119
REMARK   40  A    between atoms: _119  and  ZN_362
REMARK   41  A    between atoms: _121  and  _122
REMARK   42  A    between atoms: _127  and  _129
REMARK   43  A    between atoms: _129  and  _130
REMARK   44  A    between atoms: _129  and  _132
REMARK   45  A    between atoms: _132  and  _133
REMARK   46  A    between atoms: _139  and  _141
REMARK   47  A    between atoms: _141  and  _142
REMARK   48  A    between atoms: _141  and  _144
REMARK   49  A    between atoms: _144  and  _145
REMARK   50  A    between atoms: _145  and  _146
REMARK   51  A    between atoms: _146  and  _147
REMARK   52  A    between atoms: _156  and  _158
REMARK   53  A    between atoms: _158  and  _159
REMARK   54  A    between atoms: _158  and  _161
REMARK   55  A    between atoms: _161  and  _162
REMARK   56  A    between atoms: _164  and  _166
REMARK   57  A    between atoms: _166  and  _167
REMARK   58  A    between atoms: _166  and  _169
REMARK   59  A    between atoms: _169  and  _170
REMARK   60  A    between atoms: _175  and  _176
REMARK   61  A    between atoms: _178  and  _180
REMARK   62  A    between atoms: _180  and  _181
REMARK   63  A    between atoms: _180  and  _183
REMARK   64  A    between atoms: _183  and  _184
REMARK   65  A    between atoms: _187  and  _189
REMARK   66  A    between atoms: _189  and  _190
REMARK   67  A    between atoms: _189  and  _192
REMARK   68  A    between atoms: _192  and  _193
REMARK   69  A    between atoms: _196  and  _198
REMARK   70  A    between atoms: _198  and  _199
REMARK   71  A    between atoms: _198  and  _201
REMARK   72  A    between atoms: _201  and  _202
REMARK   73  A    between atoms: _208  and  _210
REMARK   74  A    between atoms: _210  and  _211
REMARK   75  A    between atoms: _210  and  _213
REMARK   76  A    between atoms: _213  and  _214
REMARK   77  A    between atoms: _219  and  _220
REMARK   78  A    between atoms: _222  and  _224
REMARK   79  A    between atoms: _224  and  _225
REMARK   80  A    between atoms: _224  and  _227
REMARK   81  A    between atoms: _227  and  _228
REMARK   82  A    between atoms: _231  and  _233
REMARK   83  A    between atoms: _233  and  _234
REMARK   84  A    between atoms: _233  and  _236
REMARK   85  A    between atoms: _236  and  _237
REMARK   86  A    between atoms: _247  and  _249
REMARK   87  A    between atoms: _249  and  _250
REMARK   88  A    between atoms: _249  and  _252
REMARK   89  A    between atoms: _252  and  _253
REMARK   90  A    between atoms: _258  and  _260
REMARK   91  A    between atoms: _260  and  _261
REMARK   92  A    between atoms: _260  and  _263
REMARK   93  A    between atoms: _263  and  _264
REMARK   94  A    between atoms: _268  and  ZN_362
REMARK   95  A    between atoms: _269  and  _271
REMARK   96  A    between atoms: _271  and  _272
REMARK   97  A    between atoms: _271  and  _274
REMARK   98  A    between atoms: _274  and  _275
REMARK   99  A    between atoms: _278  and  _280
REMARK  100  A    between atoms: _280  and  _281
REMARK  101  A    between atoms: _283  and  _285
REMARK  102  A    between atoms: _285  and  _286
REMARK  103  A    between atoms: _285  and  _288
REMARK  104  A    between atoms: _288  and  _289
REMARK  105  A    between atoms: _292  and  _294
REMARK  106  A    between atoms: _294  and  _295
REMARK  107  A    between atoms: _294  and  _297
REMARK  108  A    between atoms: _297  and  _298
REMARK  109  A    between atoms: _301  and  _303
REMARK  110  A    between atoms: _303  and  _304
REMARK  111  A    between atoms: _307  and  _309
REMARK  112  A    between atoms: _309  and  _310
REMARK  113  A    between atoms: _309  and  _312
REMARK  114  A    between atoms: _312  and  _313
REMARK  115  A    between atoms: _318  and  _319
REMARK  116  A    between atoms: _321  and  _323
REMARK  117  A    between atoms: _323  and  _324
REMARK  118  A    between atoms: _323  and  _326
REMARK  119  A    between atoms: _326  and  _327
REMARK  120  A    between atoms: _327  and  _328
REMARK  121  A    between atoms: _331  and  _333
REMARK  122  A    between atoms: _333  and  _334
REMARK  123  A    between atoms: _333  and  _336
REMARK  124  A    between atoms: _336  and  _337
REMARK  125  A    between atoms: _337  and  _338
REMARK  126  A    between atoms: _338  and  _339
REMARK  127  A    between atoms: _348  and  _350
REMARK  128  A    between atoms: _350  and  _351
REMARK  129  A    between atoms: _353  and  _355
REMARK  130  A    between atoms: _355  and  _356
REMARK  131  A    between atoms: _355  and  _358
REMARK  132  A    between atoms: _358  and  _359
REMARK                            x       y       z     vdW  Elec       q    Type
REMARK                         _______ _______ _______ _____ _____    ______ ____
ROOT
ATOM      1  O   HOH     1      24.389  63.292  11.530  0.00  0.00    +0.000 OA
ENDROOT
TORSDOF 0
REMARK  Name = ../refined-set-2016/3dx4/3dx4_pocket.pdb
REMARK  132 active torsions:
REMARK  status: ('A' for Active; 'I' for Inactive)
REMARK    1  A    between atoms: _1  and  _3
REMARK    2  A    between atoms: _14  and  _17
REMARK    3  A    between atoms: _17  and  _18
REMARK    4  A    between atoms: _25  and  _26
REMARK    5  A    between atoms: _33  and  _34
REMARK    6  A    between atoms: _39  and  _41
REMARK    7  A    between atoms: _41  and  _42
REMARK    8  A    between atoms: _44  and  _46
REMARK    9  A    between atoms: _46  and  _47
REMARK   10  A    between atoms: _46  and  _49
REMARK   11  A    between atoms: _49  and  _50
REMARK   12  A    between atoms: _60  and  _62
REMARK   13  A    between atoms: _62  and  _63
REMARK   14  A    between atoms: _62  and  _65
REMARK   15  A    between atoms: _65  and  _66
REMARK   16  A    between atoms: _69  and  _71
REMARK   17  A    between atoms: _71  and  _72
REMARK   18  A    between atoms: _71  and  _74
REMARK   19  A    between atoms: _74  and  _75
REMARK   20  A    between atoms: _80  and  _81
REMARK   21  A    between atoms: _83  and  _85
REMARK   22  A    between atoms: _85  and  _86
REMARK   23  A    between atoms: _85  and  _88
REMARK   24  A    between atoms: _88  and  _89
REMARK   25  A    between atoms: _89  and  _90
REMARK   26  A    between atoms: _93  and  _95
REMARK   27  A    between atoms: _95  and  _96
REMARK   28  A    between atoms: _95  and  _98
REMARK   29  A    between atoms: _98  and  _99
REMARK   30  A    between atoms: _99  and  _100
REMARK   31  A    between atoms: _102  and  _104
REMARK   32  A    between atoms: _104  and  _105
REMARK   33  A    between atoms: _104  and  _107
REMARK   34  A    between atoms: _107  and  _108
REMARK   35  A    between atoms: _111  and  _113
REMARK   36  A    between atoms: _113  and  _114
REMARK   37  A    between atoms: _113  and  _116
REMARK   38  A    between atoms: _116  and  _117
REMARK   39  A    between atoms: _117  and  _119
REMARK   40  A    between atoms: _119  and  ZN_362
REMARK   41  A    between atoms: _121  and  _122
REMARK   42  A    between atoms: _127  and  _129
REMARK   43  A    between atoms: _129  and  _130
REMARK   44  A    between atoms: _129  and  _132
REMARK   45  A    between atoms: _132  and  _133
REMARK   46  A    between atoms: _139  and  _141
REMARK   47  A    between atoms: _141  and  _142
REMARK   48  A    between atoms: _141  and  _144
REMARK   49  A    between atoms: _144  and  _145
REMARK   50  A    between atoms: _145  and  _146
REMARK   51  A    between atoms: _146  and  _147
REMARK   52  A    between atoms: _156  and  _158
REMARK   53  A    between atoms: _158  and  _159
REMARK   54  A    between atoms: _158  and  _161
REMARK   55  A    between atoms: _161  and  _162
REMARK   56  A    between atoms: _164  and  _166
REMARK   57  A    between atoms: _166  and  _167
REMARK   58  A    between atoms: _166  and  _169
REMARK   59  A    between atoms: _169  and  _170
REMARK   60  A    between atoms: _175  and  _176
REMARK   61  A    between atoms: _178  and  _180
REMARK   62  A    between atoms: _180  and  _181
REMARK   63  A    between atoms: _180  and  _183
REMARK   64  A    between atoms: _183  and  _184
REMARK   65  A    between atoms: _187  and  _189
REMARK   66  A    between atoms: _189  and  _190
REMARK   67  A    between atoms: _189  and  _192
REMARK   68  A    between atoms: _192  and  _193
REMARK   69  A    between atoms: _196  and  _198
REMARK   70  A    between atoms: _198  and  _199
REMARK   71  A    between atoms: _198  and  _201
REMARK   72  A    between atoms: _201  and  _202
REMARK   73  A    between atoms: _208  and  _210
REMARK   74  A    between atoms: _210  and  _211
REMARK   75  A    between atoms: _210  and  _213
REMARK   76  A    between atoms: _213  and  _214
REMARK   77  A    between atoms: _219  and  _220
REMARK   78  A    between atoms: _222  and  _224
REMARK   79  A    between atoms: _224  and  _225
REMARK   80  A    between atoms: _224  and  _227
REMARK   81  A    between atoms: _227  and  _228
REMARK   82  A    between atoms: _231  and  _233
REMARK   83  A    between atoms: _233  and  _234
REMARK   84  A    between atoms: _233  and  _236
REMARK   85  A    between atoms: _236  and  _237
REMARK   86  A    between atoms: _247  and  _249
REMARK   87  A    between atoms: _249  and  _250
REMARK   88  A    between atoms: _249  and  _252
REMARK   89  A    between atoms: _252  and  _253
REMARK   90  A    between atoms: _258  and  _260
REMARK   91  A    between atoms: _260  and  _261
REMARK   92  A    between atoms: _260  and  _263
REMARK   93  A    between atoms: _263  and  _264
REMARK   94  A    between atoms: _268  and  ZN_362
REMARK   95  A    between atoms: _269  and  _271
REMARK   96  A    between atoms: _271  and  _272
REMARK   97  A    between atoms: _271  and  _274
REMARK   98  A    between atoms: _274  and  _275
REMARK   99  A    between atoms: _278  and  _280
REMARK  100  A    between atoms: _280  and  _281
REMARK  101  A    between atoms: _283  and  _285
REMARK  102  A    between atoms: _285  and  _286
REMARK  103  A    between atoms: _285  and  _288
REMARK  104  A    between atoms: _288  and  _289
REMARK  105  A    between atoms: _292  and  _294
REMARK  106  A    between atoms: _294  and  _295
REMARK  107  A    between atoms: _294  and  _297
REMARK  108  A    between atoms: _297  and  _298
REMARK  109  A    between atoms: _301  and  _303
REMARK  110  A    between atoms: _303  and  _304
REMARK  111  A    between atoms: _307  and  _309
REMARK  112  A    between atoms: _309  and  _310
REMARK  113  A    between atoms: _309  and  _312
REMARK  114  A    between atoms: _312  and  _313
REMARK  115  A    between atoms: _318  and  _319
REMARK  116  A    between atoms: _321  and  _323
REMARK  117  A    between atoms: _323  and  _324
REMARK  118  A    between atoms: _323  and  _326
REMARK  119  A    between atoms: _326  and  _327
REMARK  120  A    between atoms: _327  and  _328
REMARK  121  A    between atoms: _331  and  _333
REMARK  122  A    between atoms: _333  and  _334
REMARK  123  A    between atoms: _333  and  _336
REMARK  124  A    between atoms: _336  and  _337
REMARK  125  A    between atoms: _337  and  _338
REMARK  126  A    between atoms: _338  and  _339
REMARK  127  A    between atoms: _348  and  _350
REMARK  128  A    between atoms: _350  and  _351
REMARK  129  A    between atoms: _353  and  _355
REMARK  130  A    between atoms: _355  and  _356
REMARK  131  A    between atoms: _355  and  _358
REMARK  132  A    between atoms: _358  and  _359
REMARK                            x       y       z     vdW  Elec       q    Type
REMARK                         _______ _______ _______ _____ _____    ______ ____
ROOT
ATOM      1  O   HOH     1      24.608  61.336   9.198  0.00  0.00    +0.000 OA
ENDROOT
TORSDOF 0
REMARK  Name = ../refined-set-2016/3dx4/3dx4_pocket.pdb
REMARK  132 active torsions:
REMARK  status: ('A' for Active; 'I' for Inactive)
REMARK    1  A    between atoms: _1  and  _3
REMARK    2  A    between atoms: _14  and  _17
REMARK    3  A    between atoms: _17  and  _18
REMARK    4  A    between atoms: _25  and  _26
REMARK    5  A    between atoms: _33  and  _34
REMARK    6  A    between atoms: _39  and  _41
REMARK    7  A    between atoms: _41  and  _42
REMARK    8  A    between atoms: _44  and  _46
REMARK    9  A    between atoms: _46  and  _47
REMARK   10  A    between atoms: _46  and  _49
REMARK   11  A    between atoms: _49  and  _50
REMARK   12  A    between atoms: _60  and  _62
REMARK   13  A    between atoms: _62  and  _63
REMARK   14  A    between atoms: _62  and  _65
REMARK   15  A    between atoms: _65  and  _66
REMARK   16  A    between atoms: _69  and  _71
REMARK   17  A    between atoms: _71  and  _72
REMARK   18  A    between atoms: _71  and  _74
REMARK   19  A    between atoms: _74  and  _75
REMARK   20  A    between atoms: _80  and  _81
REMARK   21  A    between atoms: _83  and  _85
REMARK   22  A    between atoms: _85  and  _86
REMARK   23  A    between atoms: _85  and  _88
REMARK   24  A    between atoms: _88  and  _89
REMARK   25  A    between atoms: _89  and  _90
REMARK   26  A    between atoms: _93  and  _95
REMARK   27  A    between atoms: _95  and  _96
REMARK   28  A    between atoms: _95  and  _98
REMARK   29  A    between atoms: _98  and  _99
REMARK   30  A    between atoms: _99  and  _100
REMARK   31  A    between atoms: _102  and  _104
REMARK   32  A    between atoms: _104  and  _105
REMARK   33  A    between atoms: _104  and  _107
REMARK   34  A    between atoms: _107  and  _108
REMARK   35  A    between atoms: _111  and  _113
REMARK   36  A    between atoms: _113  and  _114
REMARK   37  A    between atoms: _113  and  _116
REMARK   38  A    between atoms: _116  and  _117
REMARK   39  A    between atoms: _117  and  _119
REMARK   40  A    between atoms: _119  and  ZN_362
REMARK   41  A    between atoms: _121  and  _122
REMARK   42  A    between atoms: _127  and  _129
REMARK   43  A    between atoms: _129  and  _130
REMARK   44  A    between atoms: _129  and  _132
REMARK   45  A    between atoms: _132  and  _133
REMARK   46  A    between atoms: _139  and  _141
REMARK   47  A    between atoms: _141  and  _142
REMARK   48  A    between atoms: _141  and  _144
REMARK   49  A    between atoms: _144  and  _145
REMARK   50  A    between atoms: _145  and  _146
REMARK   51  A    between atoms: _146  and  _147
REMARK   52  A    between atoms: _156  and  _158
REMARK   53  A    between atoms: _158  and  _159
REMARK   54  A    between atoms: _158  and  _161
REMARK   55  A    between atoms: _161  and  _162
REMARK   56  A    between atoms: _164  and  _166
REMARK   57  A    between atoms: _166  and  _167
REMARK   58  A    between atoms: _166  and  _169
REMARK   59  A    between atoms: _169  and  _170
REMARK   60  A    between atoms: _175  and  _176
REMARK   61  A    between atoms: _178  and  _180
REMARK   62  A    between atoms: _180  and  _181
REMARK   63  A    between atoms: _180  and  _183
REMARK   64  A    between atoms: _183  and  _184
REMARK   65  A    between atoms: _187  and  _189
REMARK   66  A    between atoms: _189  and  _190
REMARK   67  A    between atoms: _189  and  _192
REMARK   68  A    between atoms: _192  and  _193
REMARK   69  A    between atoms: _196  and  _198
REMARK   70  A    between atoms: _198  and  _199
REMARK   71  A    between atoms: _198  and  _201
REMARK   72  A    between atoms: _201  and  _202
REMARK   73  A    between atoms: _208  and  _210
REMARK   74  A    between atoms: _210  and  _211
REMARK   75  A    between atoms: _210  and  _213
REMARK   76  A    between atoms: _213  and  _214
REMARK   77  A    between atoms: _219  and  _220
REMARK   78  A    between atoms: _222  and  _224
REMARK   79  A    between atoms: _224  and  _225
REMARK   80  A    between atoms: _224  and  _227
REMARK   81  A    between atoms: _227  and  _228
REMARK   82  A    between atoms: _231  and  _233
REMARK   83  A    between atoms: _233  and  _234
REMARK   84  A    between atoms: _233  and  _236
REMARK   85  A    between atoms: _236  and  _237
REMARK   86  A    between atoms: _247  and  _249
REMARK   87  A    between atoms: _249  and  _250
REMARK   88  A    between atoms: _249  and  _252
REMARK   89  A    between atoms: _252  and  _253
REMARK   90  A    between atoms: _258  and  _260
REMARK   91  A    between atoms: _260  and  _261
REMARK   92  A    between atoms: _260  and  _263
REMARK   93  A    between atoms: _263  and  _264
REMARK   94  A    between atoms: _268  and  ZN_362
REMARK   95  A    between atoms: _269  and  _271
REMARK   96  A    between atoms: _271  and  _272
REMARK   97  A    between atoms: _271  and  _274
REMARK   98  A    between atoms: _274  and  _275
REMARK   99  A    between atoms: _278  and  _280
REMARK  100  A    between atoms: _280  and  _281
REMARK  101  A    between atoms: _283  and  _285
REMARK  102  A    between atoms: _285  and  _286
REMARK  103  A    between atoms: _285  and  _288
REMARK  104  A    between atoms: _288  and  _289
REMARK  105  A    between atoms: _292  and  _294
REMARK  106  A    between atoms: _294  and  _295
REMARK  107  A    between atoms: _294  and  _297
REMARK  108  A    between atoms: _297  and  _298
REMARK  109  A    between atoms: _301  and  _303
REMARK  110  A    between atoms: _303  and  _304
REMARK  111  A    between atoms: _307  and  _309
REMARK  112  A    between atoms: _309  and  _310
REMARK  113  A    between atoms: _309  and  _312
REMARK  114  A    between atoms: _312  and  _313
REMARK  115  A    between atoms: _318  and  _319
REMARK  116  A    between atoms: _321  and  _323
REMARK  117  A    between atoms: _323  and  _324
REMARK  118  A    between atoms: _323  and  _326
REMARK  119  A    between atoms: _326  and  _327
REMARK  120  A    between atoms: _327  and  _328
REMARK  121  A    between atoms: _331  and  _333
REMARK  122  A    between atoms: _333  and  _334
REMARK  123  A    between atoms: _333  and  _336
REMARK  124  A    between atoms: _336  and  _337
REMARK  125  A    between atoms: _337  and  _338
REMARK  126  A    between atoms: _338  and  _339
REMARK  127  A    between atoms: _348  and  _350
REMARK  128  A    between atoms: _350  and  _351
REMARK  129  A    between atoms: _353  and  _355
REMARK  130  A    between atoms: _355  and  _356
REMARK  131  A    between atoms: _355  and  _358
REMARK  132  A    between atoms: _358  and  _359
REMARK                            x       y       z     vdW  Elec       q    Type
REMARK                         _______ _______ _______ _____ _____    ______ ____
ROOT
ATOM      1  O   HOH     1      24.110  63.365   7.494  0.00  0.00    +0.000 OA
ENDROOT
TORSDOF 0
REMARK  Name = ../refined-set-2016/3dx4/3dx4_pocket.pdb
REMARK  132 active torsions:
REMARK  status: ('A' for Active; 'I' for Inactive)
REMARK    1  A    between atoms: _1  and  _3
REMARK    2  A    between atoms: _14  and  _17
REMARK    3  A    between atoms: _17  and  _18
REMARK    4  A    between atoms: _25  and  _26
REMARK    5  A    between atoms: _33  and  _34
REMARK    6  A    between atoms: _39  and  _41
REMARK    7  A    between atoms: _41  and  _42
REMARK    8  A    between atoms: _44  and  _46
REMARK    9  A    between atoms: _46  and  _47
REMARK   10  A    between atoms: _46  and  _49
REMARK   11  A    between atoms: _49  and  _50
REMARK   12  A    between atoms: _60  and  _62
REMARK   13  A    between atoms: _62  and  _63
REMARK   14  A    between atoms: _62  and  _65
REMARK   15  A    between atoms: _65  and  _66
REMARK   16  A    between atoms: _69  and  _71
REMARK   17  A    between atoms: _71  and  _72
REMARK   18  A    between atoms: _71  and  _74
REMARK   19  A    between atoms: _74  and  _75
REMARK   20  A    between atoms: _80  and  _81
REMARK   21  A    between atoms: _83  and  _85
REMARK   22  A    between atoms: _85  and  _86
REMARK   23  A    between atoms: _85  and  _88
REMARK   24  A    between atoms: _88  and  _89
REMARK   25  A    between atoms: _89  and  _90
REMARK   26  A    between atoms: _93  and  _95
REMARK   27  A    between atoms: _95  and  _96
REMARK   28  A    between atoms: _95  and  _98
REMARK   29  A    between atoms: _98  and  _99
REMARK   30  A    between atoms: _99  and  _100
REMARK   31  A    between atoms: _102  and  _104
REMARK   32  A    between atoms: _104  and  _105
REMARK   33  A    between atoms: _104  and  _107
REMARK   34  A    between atoms: _107  and  _108
REMARK   35  A    between atoms: _111  and  _113
REMARK   36  A    between atoms: _113  and  _114
REMARK   37  A    between atoms: _113  and  _116
REMARK   38  A    between atoms: _116  and  _117
REMARK   39  A    between atoms: _117  and  _119
REMARK   40  A    between atoms: _119  and  ZN_362
REMARK   41  A    between atoms: _121  and  _122
REMARK   42  A    between atoms: _127  and  _129
REMARK   43  A    between atoms: _129  and  _130
REMARK   44  A    between atoms: _129  and  _132
REMARK   45  A    between atoms: _132  and  _133
REMARK   46  A    between atoms: _139  and  _141
REMARK   47  A    between atoms: _141  and  _142
REMARK   48  A    between atoms: _141  and  _144
REMARK   49  A    between atoms: _144  and  _145
REMARK   50  A    between atoms: _145  and  _146
REMARK   51  A    between atoms: _146  and  _147
REMARK   52  A    between atoms: _156  and  _158
REMARK   53  A    between atoms: _158  and  _159
REMARK   54  A    between atoms: _158  and  _161
REMARK   55  A    between atoms: _161  and  _162
REMARK   56  A    between atoms: _164  and  _166
REMARK   57  A    between atoms: _166  and  _167
REMARK   58  A    between atoms: _166  and  _169
REMARK   59  A    between atoms: _169  and  _170
REMARK   60  A    between atoms: _175  and  _176
REMARK   61  A    between atoms: _178  and  _180
REMARK   62  A    between atoms: _180  and  _181
REMARK   63  A    between atoms: _180  and  _183
REMARK   64  A    between atoms: _183  and  _184
REMARK   65  A    between atoms: _187  and  _189
REMARK   66  A    between atoms: _189  and  _190
REMARK   67  A    between atoms: _189  and  _192
REMARK   68  A    between atoms: _192  and  _193
REMARK   69  A    between atoms: _196  and  _198
REMARK   70  A    between atoms: _198  and  _199
REMARK   71  A    between atoms: _198  and  _201
REMARK   72  A    between atoms: _201  and  _202
REMARK   73  A    between atoms: _208  and  _210
REMARK   74  A    between atoms: _210  and  _211
REMARK   75  A    between atoms: _210  and  _213
REMARK   76  A    between atoms: _213  and  _214
REMARK   77  A    between atoms: _219  and  _220
REMARK   78  A    between atoms: _222  and  _224
REMARK   79  A    between atoms: _224  and  _225
REMARK   80  A    between atoms: _224  and  _227
REMARK   81  A    between atoms: _227  and  _228
REMARK   82  A    between atoms: _231  and  _233
REMARK   83  A    between atoms: _233  and  _234
REMARK   84  A    between atoms: _233  and  _236
REMARK   85  A    between atoms: _236  and  _237
REMARK   86  A    between atoms: _247  and  _249
REMARK   87  A    between atoms: _249  and  _250
REMARK   88  A    between atoms: _249  and  _252
REMARK   89  A    between atoms: _252  and  _253
REMARK   90  A    between atoms: _258  and  _260
REMARK   91  A    between atoms: _260  and  _261
REMARK   92  A    between atoms: _260  and  _263
REMARK   93  A    between atoms: _263  and  _264
REMARK   94  A    between atoms: _268  and  ZN_362
REMARK   95  A    between atoms: _269  and  _271
REMARK   96  A    between atoms: _271  and  _272
REMARK   97  A    between atoms: _271  and  _274
REMARK   98  A    between atoms: _274  and  _275
REMARK   99  A    between atoms: _278  and  _280
REMARK  100  A    between atoms: _280  and  _281
REMARK  101  A    between atoms: _283  and  _285
REMARK  102  A    between atoms: _285  and  _286
REMARK  103  A    between atoms: _285  and  _288
REMARK  104  A    between atoms: _288  and  _289
REMARK  105  A    between atoms: _292  and  _294
REMARK  106  A    between atoms: _294  and  _295
REMARK  107  A    between atoms: _294  and  _297
REMARK  108  A    between atoms: _297  and  _298
REMARK  109  A    between atoms: _301  and  _303
REMARK  110  A    between atoms: _303  and  _304
REMARK  111  A    between atoms: _307  and  _309
REMARK  112  A    between atoms: _309  and  _310
REMARK  113  A    between atoms: _309  and  _312
REMARK  114  A    between atoms: _312  and  _313
REMARK  115  A    between atoms: _318  and  _319
REMARK  116  A    between atoms: _321  and  _323
REMARK  117  A    between atoms: _323  and  _324
REMARK  118  A    between atoms: _323  and  _326
REMARK  119  A    between atoms: _326  and  _327
REMARK  120  A    between atoms: _327  and  _328
REMARK  121  A    between atoms: _331  and  _333
REMARK  122  A    between atoms: _333  and  _334
REMARK  123  A    between atoms: _333  and  _336
REMARK  124  A    between atoms: _336  and  _337
REMARK  125  A    between atoms: _337  and  _338
REMARK  126  A    between atoms: _338  and  _339
REMARK  127  A    between atoms: _348  and  _350
REMARK  128  A    between atoms: _350  and  _351
REMARK  129  A    between atoms: _353  and  _355
REMARK  130  A    between atoms: _355  and  _356
REMARK  131  A    between atoms: _355  and  _358
REMARK  132  A    between atoms: _358  and  _359
REMARK                            x       y       z     vdW  Elec       q    Type
REMARK                         _______ _______ _______ _____ _____    ______ ____
ROOT
ATOM      1  O   HOH     1      26.094  64.718   8.734  0.00  0.00    +0.000 OA
ENDROOT
TORSDOF 0
REMARK  Name = ../refined-set-2016/3dx4/3dx4_pocket.pdb
REMARK  132 active torsions:
REMARK  status: ('A' for Active; 'I' for Inactive)
REMARK    1  A    between atoms: _1  and  _3
REMARK    2  A    between atoms: _14  and  _17
REMARK    3  A    between atoms: _17  and  _18
REMARK    4  A    between atoms: _25  and  _26
REMARK    5  A    between atoms: _33  and  _34
REMARK    6  A    between atoms: _39  and  _41
REMARK    7  A    between atoms: _41  and  _42
REMARK    8  A    between atoms: _44  and  _46
REMARK    9  A    between atoms: _46  and  _47
REMARK   10  A    between atoms: _46  and  _49
REMARK   11  A    between atoms: _49  and  _50
REMARK   12  A    between atoms: _60  and  _62
REMARK   13  A    between atoms: _62  and  _63
REMARK   14  A    between atoms: _62  and  _65
REMARK   15  A    between atoms: _65  and  _66
REMARK   16  A    between atoms: _69  and  _71
REMARK   17  A    between atoms: _71  and  _72
REMARK   18  A    between atoms: _71  and  _74
REMARK   19  A    between atoms: _74  and  _75
REMARK   20  A    between atoms: _80  and  _81
REMARK   21  A    between atoms: _83  and  _85
REMARK   22  A    between atoms: _85  and  _86
REMARK   23  A    between atoms: _85  and  _88
REMARK   24  A    between atoms: _88  and  _89
REMARK   25  A    between atoms: _89  and  _90
REMARK   26  A    between atoms: _93  and  _95
REMARK   27  A    between atoms: _95  and  _96
REMARK   28  A    between atoms: _95  and  _98
REMARK   29  A    between atoms: _98  and  _99
REMARK   30  A    between atoms: _99  and  _100
REMARK   31  A    between atoms: _102  and  _104
REMARK   32  A    between atoms: _104  and  _105
REMARK   33  A    between atoms: _104  and  _107
REMARK   34  A    between atoms: _107  and  _108
REMARK   35  A    between atoms: _111  and  _113
REMARK   36  A    between atoms: _113  and  _114
REMARK   37  A    between atoms: _113  and  _116
REMARK   38  A    between atoms: _116  and  _117
REMARK   39  A    between atoms: _117  and  _119
REMARK   40  A    between atoms: _119  and  ZN_362
REMARK   41  A    between atoms: _121  and  _122
REMARK   42  A    between atoms: _127  and  _129
REMARK   43  A    between atoms: _129  and  _130
REMARK   44  A    between atoms: _129  and  _132
REMARK   45  A    between atoms: _132  and  _133
REMARK   46  A    between atoms: _139  and  _141
REMARK   47  A    between atoms: _141  and  _142
REMARK   48  A    between atoms: _141  and  _144
REMARK   49  A    between atoms: _144  and  _145
REMARK   50  A    between atoms: _145  and  _146
REMARK   51  A    between atoms: _146  and  _147
REMARK   52  A    between atoms: _156  and  _158
REMARK   53  A    between atoms: _158  and  _159
REMARK   54  A    between atoms: _158  and  _161
REMARK   55  A    between atoms: _161  and  _162
REMARK   56  A    between atoms: _164  and  _166
REMARK   57  A    between atoms: _166  and  _167
REMARK   58  A    between atoms: _166  and  _169
REMARK   59  A    between atoms: _169  and  _170
REMARK   60  A    between atoms: _175  and  _176
REMARK   61  A    between atoms: _178  and  _180
REMARK   62  A    between atoms: _180  and  _181
REMARK   63  A    between atoms: _180  and  _183
REMARK   64  A    between atoms: _183  and  _184
REMARK   65  A    between atoms: _187  and  _189
REMARK   66  A    between atoms: _189  and  _190
REMARK   67  A    between atoms: _189  and  _192
REMARK   68  A    between atoms: _192  and  _193
REMARK   69  A    between atoms: _196  and  _198
REMARK   70  A    between atoms: _198  and  _199
REMARK   71  A    between atoms: _198  and  _201
REMARK   72  A    between atoms: _201  and  _202
REMARK   73  A    between atoms: _208  and  _210
REMARK   74  A    between atoms: _210  and  _211
REMARK   75  A    between atoms: _210  and  _213
REMARK   76  A    between atoms: _213  and  _214
REMARK   77  A    between atoms: _219  and  _220
REMARK   78  A    between atoms: _222  and  _224
REMARK   79  A    between atoms: _224  and  _225
REMARK   80  A    between atoms: _224  and  _227
REMARK   81  A    between atoms: _227  and  _228
REMARK   82  A    between atoms: _231  and  _233
REMARK   83  A    between atoms: _233  and  _234
REMARK   84  A    between atoms: _233  and  _236
REMARK   85  A    between atoms: _236  and  _237
REMARK   86  A    between atoms: _247  and  _249
REMARK   87  A    between atoms: _249  and  _250
REMARK   88  A    between atoms: _249  and  _252
REMARK   89  A    between atoms: _252  and  _253
REMARK   90  A    between atoms: _258  and  _260
REMARK   91  A    between atoms: _260  and  _261
REMARK   92  A    between atoms: _260  and  _263
REMARK   93  A    between atoms: _263  and  _264
REMARK   94  A    between atoms: _268  and  ZN_362
REMARK   95  A    between atoms: _269  and  _271
REMARK   96  A    between atoms: _271  and  _272
REMARK   97  A    between atoms: _271  and  _274
REMARK   98  A    between atoms: _274  and  _275
REMARK   99  A    between atoms: _278  and  _280
REMARK  100  A    between atoms: _280  and  _281
REMARK  101  A    between atoms: _283  and  _285
REMARK  102  A    between atoms: _285  and  _286
REMARK  103  A    between atoms: _285  and  _288
REMARK  104  A    between atoms: _288  and  _289
REMARK  105  A    between atoms: _292  and  _294
REMARK  106  A    between atoms: _294  and  _295
REMARK  107  A    between atoms: _294  and  _297
REMARK  108  A    between atoms: _297  and  _298
REMARK  109  A    between atoms: _301  and  _303
REMARK  110  A    between atoms: _303  and  _304
REMARK  111  A    between atoms: _307  and  _309
REMARK  112  A    between atoms: _309  and  _310
REMARK  113  A    between atoms: _309  and  _312
REMARK  114  A    between atoms: _312  and  _313
REMARK  115  A    between atoms: _318  and  _319
REMARK  116  A    between atoms: _321  and  _323
REMARK  117  A    between atoms: _323  and  _324
REMARK  118  A    between atoms: _323  and  _326
REMARK  119  A    between atoms: _326  and  _327
REMARK  120  A    between atoms: _327  and  _328
REMARK  121  A    between atoms: _331  and  _333
REMARK  122  A    between atoms: _333  and  _334
REMARK  123  A    between atoms: _333  and  _336
REMARK  124  A    between atoms: _336  and  _337
REMARK  125  A    between atoms: _337  and  _338
REMARK  126  A    between atoms: _338  and  _339
REMARK  127  A    between atoms: _348  and  _350
REMARK  128  A    between atoms: _350  and  _351
REMARK  129  A    between atoms: _353  and  _355
REMARK  130  A    between atoms: _355  and  _356
REMARK  131  A    between atoms: _355  and  _358
REMARK  132  A    between atoms: _358  and  _359
REMARK                            x       y       z     vdW  Elec       q    Type
REMARK                         _______ _______ _______ _____ _____    ______ ____
ROOT
ATOM      1  O   HOH     1      27.485  67.000   9.140  0.00  0.00    +0.000 OA
ENDROOT
TORSDOF 0
REMARK  Name = ../refined-set-2016/3dx4/3dx4_pocket.pdb
REMARK  132 active torsions:
REMARK  status: ('A' for Active; 'I' for Inactive)
REMARK    1  A    between atoms: _1  and  _3
REMARK    2  A    between atoms: _14  and  _17
REMARK    3  A    between atoms: _17  and  _18
REMARK    4  A    between atoms: _25  and  _26
REMARK    5  A    between atoms: _33  and  _34
REMARK    6  A    between atoms: _39  and  _41
REMARK    7  A    between atoms: _41  and  _42
REMARK    8  A    between atoms: _44  and  _46
REMARK    9  A    between atoms: _46  and  _47
REMARK   10  A    between atoms: _46  and  _49
REMARK   11  A    between atoms: _49  and  _50
REMARK   12  A    between atoms: _60  and  _62
REMARK   13  A    between atoms: _62  and  _63
REMARK   14  A    between atoms: _62  and  _65
REMARK   15  A    between atoms: _65  and  _66
REMARK   16  A    between atoms: _69  and  _71
REMARK   17  A    between atoms: _71  and  _72
REMARK   18  A    between atoms: _71  and  _74
REMARK   19  A    between atoms: _74  and  _75
REMARK   20  A    between atoms: _80  and  _81
REMARK   21  A    between atoms: _83  and  _85
REMARK   22  A    between atoms: _85  and  _86
REMARK   23  A    between atoms: _85  and  _88
REMARK   24  A    between atoms: _88  and  _89
REMARK   25  A    between atoms: _89  and  _90
REMARK   26  A    between atoms: _93  and  _95
REMARK   27  A    between atoms: _95  and  _96
REMARK   28  A    between atoms: _95  and  _98
REMARK   29  A    between atoms: _98  and  _99
REMARK   30  A    between atoms: _99  and  _100
REMARK   31  A    between atoms: _102  and  _104
REMARK   32  A    between atoms: _104  and  _105
REMARK   33  A    between atoms: _104  and  _107
REMARK   34  A    between atoms: _107  and  _108
REMARK   35  A    between atoms: _111  and  _113
REMARK   36  A    between atoms: _113  and  _114
REMARK   37  A    between atoms: _113  and  _116
REMARK   38  A    between atoms: _116  and  _117
REMARK   39  A    between atoms: _117  and  _119
REMARK   40  A    between atoms: _119  and  ZN_362
REMARK   41  A    between atoms: _121  and  _122
REMARK   42  A    between atoms: _127  and  _129
REMARK   43  A    between atoms: _129  and  _130
REMARK   44  A    between atoms: _129  and  _132
REMARK   45  A    between atoms: _132  and  _133
REMARK   46  A    between atoms: _139  and  _141
REMARK   47  A    between atoms: _141  and  _142
REMARK   48  A    between atoms: _141  and  _144
REMARK   49  A    between atoms: _144  and  _145
REMARK   50  A    between atoms: _145  and  _146
REMARK   51  A    between atoms: _146  and  _147
REMARK   52  A    between atoms: _156  and  _158
REMARK   53  A    between atoms: _158  and  _159
REMARK   54  A    between atoms: _158  and  _161
REMARK   55  A    between atoms: _161  and  _162
REMARK   56  A    between atoms: _164  and  _166
REMARK   57  A    between atoms: _166  and  _167
REMARK   58  A    between atoms: _166  and  _169
REMARK   59  A    between atoms: _169  and  _170
REMARK   60  A    between atoms: _175  and  _176
REMARK   61  A    between atoms: _178  and  _180
REMARK   62  A    between atoms: _180  and  _181
REMARK   63  A    between atoms: _180  and  _183
REMARK   64  A    between atoms: _183  and  _184
REMARK   65  A    between atoms: _187  and  _189
REMARK   66  A    between atoms: _189  and  _190
REMARK   67  A    between atoms: _189  and  _192
REMARK   68  A    between atoms: _192  and  _193
REMARK   69  A    between atoms: _196  and  _198
REMARK   70  A    between atoms: _198  and  _199
REMARK   71  A    between atoms: _198  and  _201
REMARK   72  A    between atoms: _201  and  _202
REMARK   73  A    between atoms: _208  and  _210
REMARK   74  A    between atoms: _210  and  _211
REMARK   75  A    between atoms: _210  and  _213
REMARK   76  A    between atoms: _213  and  _214
REMARK   77  A    between atoms: _219  and  _220
REMARK   78  A    between atoms: _222  and  _224
REMARK   79  A    between atoms: _224  and  _225
REMARK   80  A    between atoms: _224  and  _227
REMARK   81  A    between atoms: _227  and  _228
REMARK   82  A    between atoms: _231  and  _233
REMARK   83  A    between atoms: _233  and  _234
REMARK   84  A    between atoms: _233  and  _236
REMARK   85  A    between atoms: _236  and  _237
REMARK   86  A    between atoms: _247  and  _249
REMARK   87  A    between atoms: _249  and  _250
REMARK   88  A    between atoms: _249  and  _252
REMARK   89  A    between atoms: _252  and  _253
REMARK   90  A    between atoms: _258  and  _260
REMARK   91  A    between atoms: _260  and  _261
REMARK   92  A    between atoms: _260  and  _263
REMARK   93  A    between atoms: _263  and  _264
REMARK   94  A    between atoms: _268  and  ZN_362
REMARK   95  A    between atoms: _269  and  _271
REMARK   96  A    between atoms: _271  and  _272
REMARK   97  A    between atoms: _271  and  _274
REMARK   98  A    between atoms: _274  and  _275
REMARK   99  A    between atoms: _278  and  _280
REMARK  100  A    between atoms: _280  and  _281
REMARK  101  A    between atoms: _283  and  _285
REMARK  102  A    between atoms: _285  and  _286
REMARK  103  A    between atoms: _285  and  _288
REMARK  104  A    between atoms: _288  and  _289
REMARK  105  A    between atoms: _292  and  _294
REMARK  106  A    between atoms: _294  and  _295
REMARK  107  A    between atoms: _294  and  _297
REMARK  108  A    between atoms: _297  and  _298
REMARK  109  A    between atoms: _301  and  _303
REMARK  110  A    between atoms: _303  and  _304
REMARK  111  A    between atoms: _307  and  _309
REMARK  112  A    between atoms: _309  and  _310
REMARK  113  A    between atoms: _309  and  _312
REMARK  114  A    between atoms: _312  and  _313
REMARK  115  A    between atoms: _318  and  _319
REMARK  116  A    between atoms: _321  and  _323
REMARK  117  A    between atoms: _323  and  _324
REMARK  118  A    between atoms: _323  and  _326
REMARK  119  A    between atoms: _326  and  _327
REMARK  120  A    between atoms: _327  and  _328
REMARK  121  A    between atoms: _331  and  _333
REMARK  122  A    between atoms: _333  and  _334
REMARK  123  A    between atoms: _333  and  _336
REMARK  124  A    between atoms: _336  and  _337
REMARK  125  A    between atoms: _337  and  _338
REMARK  126  A    between atoms: _338  and  _339
REMARK  127  A    between atoms: _348  and  _350
REMARK  128  A    between atoms: _350  and  _351
REMARK  129  A    between atoms: _353  and  _355
REMARK  130  A    between atoms: _355  and  _356
REMARK  131  A    between atoms: _355  and  _358
REMARK  132  A    between atoms: _358  and  _359
REMARK                            x       y       z     vdW  Elec       q    Type
REMARK                         _______ _______ _______ _____ _____    ______ ____
ROOT
ATOM      1  O   HOH     1      27.910  67.465  11.824  0.00  0.00    +0.000 OA
ENDROOT
TORSDOF 0
REMARK  Name = ../refined-set-2016/3dx4/3dx4_pocket.pdb
REMARK  132 active torsions:
REMARK  status: ('A' for Active; 'I' for Inactive)
REMARK    1  A    between atoms: _1  and  _3
REMARK    2  A    between atoms: _14  and  _17
REMARK    3  A    between atoms: _17  and  _18
REMARK    4  A    between atoms: _25  and  _26
REMARK    5  A    between atoms: _33  and  _34
REMARK    6  A    between atoms: _39  and  _41
REMARK    7  A    between atoms: _41  and  _42
REMARK    8  A    between atoms: _44  and  _46
REMARK    9  A    between atoms: _46  and  _47
REMARK   10  A    between atoms: _46  and  _49
REMARK   11  A    between atoms: _49  and  _50
REMARK   12  A    between atoms: _60  and  _62
REMARK   13  A    between atoms: _62  and  _63
REMARK   14  A    between atoms: _62  and  _65
REMARK   15  A    between atoms: _65  and  _66
REMARK   16  A    between atoms: _69  and  _71
REMARK   17  A    between atoms: _71  and  _72
REMARK   18  A    between atoms: _71  and  _74
REMARK   19  A    between atoms: _74  and  _75
REMARK   20  A    between atoms: _80  and  _81
REMARK   21  A    between atoms: _83  and  _85
REMARK   22  A    between atoms: _85  and  _86
REMARK   23  A    between atoms: _85  and  _88
REMARK   24  A    between atoms: _88  and  _89
REMARK   25  A    between atoms: _89  and  _90
REMARK   26  A    between atoms: _93  and  _95
REMARK   27  A    between atoms: _95  and  _96
REMARK   28  A    between atoms: _95  and  _98
REMARK   29  A    between atoms: _98  and  _99
REMARK   30  A    between atoms: _99  and  _100
REMARK   31  A    between atoms: _102  and  _104
REMARK   32  A    between atoms: _104  and  _105
REMARK   33  A    between atoms: _104  and  _107
REMARK   34  A    between atoms: _107  and  _108
REMARK   35  A    between atoms: _111  and  _113
REMARK   36  A    between atoms: _113  and  _114
REMARK   37  A    between atoms: _113  and  _116
REMARK   38  A    between atoms: _116  and  _117
REMARK   39  A    between atoms: _117  and  _119
REMARK   40  A    between atoms: _119  and  ZN_362
REMARK   41  A    between atoms: _121  and  _122
REMARK   42  A    between atoms: _127  and  _129
REMARK   43  A    between atoms: _129  and  _130
REMARK   44  A    between atoms: _129  and  _132
REMARK   45  A    between atoms: _132  and  _133
REMARK   46  A    between atoms: _139  and  _141
REMARK   47  A    between atoms: _141  and  _142
REMARK   48  A    between atoms: _141  and  _144
REMARK   49  A    between atoms: _144  and  _145
REMARK   50  A    between atoms: _145  and  _146
REMARK   51  A    between atoms: _146  and  _147
REMARK   52  A    between atoms: _156  and  _158
REMARK   53  A    between atoms: _158  and  _159
REMARK   54  A    between atoms: _158  and  _161
REMARK   55  A    between atoms: _161  and  _162
REMARK   56  A    between atoms: _164  and  _166
REMARK   57  A    between atoms: _166  and  _167
REMARK   58  A    between atoms: _166  and  _169
REMARK   59  A    between atoms: _169  and  _170
REMARK   60  A    between atoms: _175  and  _176
REMARK   61  A    between atoms: _178  and  _180
REMARK   62  A    between atoms: _180  and  _181
REMARK   63  A    between atoms: _180  and  _183
REMARK   64  A    between atoms: _183  and  _184
REMARK   65  A    between atoms: _187  and  _189
REMARK   66  A    between atoms: _189  and  _190
REMARK   67  A    between atoms: _189  and  _192
REMARK   68  A    between atoms: _192  and  _193
REMARK   69  A    between atoms: _196  and  _198
REMARK   70  A    between atoms: _198  and  _199
REMARK   71  A    between atoms: _198  and  _201
REMARK   72  A    between atoms: _201  and  _202
REMARK   73  A    between atoms: _208  and  _210
REMARK   74  A    between atoms: _210  and  _211
REMARK   75  A    between atoms: _210  and  _213
REMARK   76  A    between atoms: _213  and  _214
REMARK   77  A    between atoms: _219  and  _220
REMARK   78  A    between atoms: _222  and  _224
REMARK   79  A    between atoms: _224  and  _225
REMARK   80  A    between atoms: _224  and  _227
REMARK   81  A    between atoms: _227  and  _228
REMARK   82  A    between atoms: _231  and  _233
REMARK   83  A    between atoms: _233  and  _234
REMARK   84  A    between atoms: _233  and  _236
REMARK   85  A    between atoms: _236  and  _237
REMARK   86  A    between atoms: _247  and  _249
REMARK   87  A    between atoms: _249  and  _250
REMARK   88  A    between atoms: _249  and  _252
REMARK   89  A    between atoms: _252  and  _253
REMARK   90  A    between atoms: _258  and  _260
REMARK   91  A    between atoms: _260  and  _261
REMARK   92  A    between atoms: _260  and  _263
REMARK   93  A    between atoms: _263  and  _264
REMARK   94  A    between atoms: _268  and  ZN_362
REMARK   95  A    between atoms: _269  and  _271
REMARK   96  A    between atoms: _271  and  _272
REMARK   97  A    between atoms: _271  and  _274
REMARK   98  A    between atoms: _274  and  _275
REMARK   99  A    between atoms: _278  and  _280
REMARK  100  A    between atoms: _280  and  _281
REMARK  101  A    between atoms: _283  and  _285
REMARK  102  A    between atoms: _285  and  _286
REMARK  103  A    between atoms: _285  and  _288
REMARK  104  A    between atoms: _288  and  _289
REMARK  105  A    between atoms: _292  and  _294
REMARK  106  A    between atoms: _294  and  _295
REMARK  107  A    between atoms: _294  and  _297
REMARK  108  A    between atoms: _297  and  _298
REMARK  109  A    between atoms: _301  and  _303
REMARK  110  A    between atoms: _303  and  _304
REMARK  111  A    between atoms: _307  and  _309
REMARK  112  A    between atoms: _309  and  _310
REMARK  113  A    between atoms: _309  and  _312
REMARK  114  A    between atoms: _312  and  _313
REMARK  115  A    between atoms: _318  and  _319
REMARK  116  A    between atoms: _321  and  _323
REMARK  117  A    between atoms: _323  and  _324
REMARK  118  A    between atoms: _323  and  _326
REMARK  119  A    between atoms: _326  and  _327
REMARK  120  A    between atoms: _327  and  _328
REMARK  121  A    between atoms: _331  and  _333
REMARK  122  A    between atoms: _333  and  _334
REMARK  123  A    between atoms: _333  and  _336
REMARK  124  A    between atoms: _336  and  _337
REMARK  125  A    between atoms: _337  and  _338
REMARK  126  A    between atoms: _338  and  _339
REMARK  127  A    between atoms: _348  and  _350
REMARK  128  A    between atoms: _350  and  _351
REMARK  129  A    between atoms: _353  and  _355
REMARK  130  A    between atoms: _355  and  _356
REMARK  131  A    between atoms: _355  and  _358
REMARK  132  A    between atoms: _358  and  _359
REMARK                            x       y       z     vdW  Elec       q    Type
REMARK                         _______ _______ _______ _____ _____    ______ ____
ROOT
ATOM      1  O   HOH     1      30.066  67.039  13.160  0.00  0.00    +0.000 OA
ENDROOT
TORSDOF 0
REMARK  Name = ../refined-set-2016/3dx4/3dx4_pocket.pdb
REMARK  132 active torsions:
REMARK  status: ('A' for Active; 'I' for Inactive)
REMARK    1  A    between atoms: _1  and  _3
REMARK    2  A    between atoms: _14  and  _17
REMARK    3  A    between atoms: _17  and  _18
REMARK    4  A    between atoms: _25  and  _26
REMARK    5  A    between atoms: _33  and  _34
REMARK    6  A    between atoms: _39  and  _41
REMARK    7  A    between atoms: _41  and  _42
REMARK    8  A    between atoms: _44  and  _46
REMARK    9  A    between atoms: _46  and  _47
REMARK   10  A    between atoms: _46  and  _49
REMARK   11  A    between atoms: _49  and  _50
REMARK   12  A    between atoms: _60  and  _62
REMARK   13  A    between atoms: _62  and  _63
REMARK   14  A    between atoms: _62  and  _65
REMARK   15  A    between atoms: _65  and  _66
REMARK   16  A    between atoms: _69  and  _71
REMARK   17  A    between atoms: _71  and  _72
REMARK   18  A    between atoms: _71  and  _74
REMARK   19  A    between atoms: _74  and  _75
REMARK   20  A    between atoms: _80  and  _81
REMARK   21  A    between atoms: _83  and  _85
REMARK   22  A    between atoms: _85  and  _86
REMARK   23  A    between atoms: _85  and  _88
REMARK   24  A    between atoms: _88  and  _89
REMARK   25  A    between atoms: _89  and  _90
REMARK   26  A    between atoms: _93  and  _95
REMARK   27  A    between atoms: _95  and  _96
REMARK   28  A    between atoms: _95  and  _98
REMARK   29  A    between atoms: _98  and  _99
REMARK   30  A    between atoms: _99  and  _100
REMARK   31  A    between atoms: _102  and  _104
REMARK   32  A    between atoms: _104  and  _105
REMARK   33  A    between atoms: _104  and  _107
REMARK   34  A    between atoms: _107  and  _108
REMARK   35  A    between atoms: _111  and  _113
REMARK   36  A    between atoms: _113  and  _114
REMARK   37  A    between atoms: _113  and  _116
REMARK   38  A    between atoms: _116  and  _117
REMARK   39  A    between atoms: _117  and  _119
REMARK   40  A    between atoms: _119  and  ZN_362
REMARK   41  A    between atoms: _121  and  _122
REMARK   42  A    between atoms: _127  and  _129
REMARK   43  A    between atoms: _129  and  _130
REMARK   44  A    between atoms: _129  and  _132
REMARK   45  A    between atoms: _132  and  _133
REMARK   46  A    between atoms: _139  and  _141
REMARK   47  A    between atoms: _141  and  _142
REMARK   48  A    between atoms: _141  and  _144
REMARK   49  A    between atoms: _144  and  _145
REMARK   50  A    between atoms: _145  and  _146
REMARK   51  A    between atoms: _146  and  _147
REMARK   52  A    between atoms: _156  and  _158
REMARK   53  A    between atoms: _158  and  _159
REMARK   54  A    between atoms: _158  and  _161
REMARK   55  A    between atoms: _161  and  _162
REMARK   56  A    between atoms: _164  and  _166
REMARK   57  A    between atoms: _166  and  _167
REMARK   58  A    between atoms: _166  and  _169
REMARK   59  A    between atoms: _169  and  _170
REMARK   60  A    between atoms: _175  and  _176
REMARK   61  A    between atoms: _178  and  _180
REMARK   62  A    between atoms: _180  and  _181
REMARK   63  A    between atoms: _180  and  _183
REMARK   64  A    between atoms: _183  and  _184
REMARK   65  A    between atoms: _187  and  _189
REMARK   66  A    between atoms: _189  and  _190
REMARK   67  A    between atoms: _189  and  _192
REMARK   68  A    between atoms: _192  and  _193
REMARK   69  A    between atoms: _196  and  _198
REMARK   70  A    between atoms: _198  and  _199
REMARK   71  A    between atoms: _198  and  _201
REMARK   72  A    between atoms: _201  and  _202
REMARK   73  A    between atoms: _208  and  _210
REMARK   74  A    between atoms: _210  and  _211
REMARK   75  A    between atoms: _210  and  _213
REMARK   76  A    between atoms: _213  and  _214
REMARK   77  A    between atoms: _219  and  _220
REMARK   78  A    between atoms: _222  and  _224
REMARK   79  A    between atoms: _224  and  _225
REMARK   80  A    between atoms: _224  and  _227
REMARK   81  A    between atoms: _227  and  _228
REMARK   82  A    between atoms: _231  and  _233
REMARK   83  A    between atoms: _233  and  _234
REMARK   84  A    between atoms: _233  and  _236
REMARK   85  A    between atoms: _236  and  _237
REMARK   86  A    between atoms: _247  and  _249
REMARK   87  A    between atoms: _249  and  _250
REMARK   88  A    between atoms: _249  and  _252
REMARK   89  A    between atoms: _252  and  _253
REMARK   90  A    between atoms: _258  and  _260
REMARK   91  A    between atoms: _260  and  _261
REMARK   92  A    between atoms: _260  and  _263
REMARK   93  A    between atoms: _263  and  _264
REMARK   94  A    between atoms: _268  and  ZN_362
REMARK   95  A    between atoms: _269  and  _271
REMARK   96  A    between atoms: _271  and  _272
REMARK   97  A    between atoms: _271  and  _274
REMARK   98  A    between atoms: _274  and  _275
REMARK   99  A    between atoms: _278  and  _280
REMARK  100  A    between atoms: _280  and  _281
REMARK  101  A    between atoms: _283  and  _285
REMARK  102  A    between atoms: _285  and  _286
REMARK  103  A    between atoms: _285  and  _288
REMARK  104  A    between atoms: _288  and  _289
REMARK  105  A    between atoms: _292  and  _294
REMARK  106  A    between atoms: _294  and  _295
REMARK  107  A    between atoms: _294  and  _297
REMARK  108  A    between atoms: _297  and  _298
REMARK  109  A    between atoms: _301  and  _303
REMARK  110  A    between atoms: _303  and  _304
REMARK  111  A    between atoms: _307  and  _309
REMARK  112  A    between atoms: _309  and  _310
REMARK  113  A    between atoms: _309  and  _312
REMARK  114  A    between atoms: _312  and  _313
REMARK  115  A    between atoms: _318  and  _319
REMARK  116  A    between atoms: _321  and  _323
REMARK  117  A    between atoms: _323  and  _324
REMARK  118  A    between atoms: _323  and  _326
REMARK  119  A    between atoms: _326  and  _327
REMARK  120  A    between atoms: _327  and  _328
REMARK  121  A    between atoms: _331  and  _333
REMARK  122  A    between atoms: _333  and  _334
REMARK  123  A    between atoms: _333  and  _336
REMARK  124  A    between atoms: _336  and  _337
REMARK  125  A    between atoms: _337  and  _338
REMARK  126  A    between atoms: _338  and  _339
REMARK  127  A    between atoms: _348  and  _350
REMARK  128  A    between atoms: _350  and  _351
REMARK  129  A    between atoms: _353  and  _355
REMARK  130  A    between atoms: _355  and  _356
REMARK  131  A    between atoms: _355  and  _358
REMARK  132  A    between atoms: _358  and  _359
REMARK                            x       y       z     vdW  Elec       q    Type
REMARK                         _______ _______ _______ _____ _____    ______ ____
ROOT
ATOM      1  O   HOH     1      30.622  69.347  14.371  0.00  0.00    +0.000 OA
ENDROOT
TORSDOF 0
REMARK  Name = ../refined-set-2016/3dx4/3dx4_pocket.pdb
REMARK  132 active torsions:
REMARK  status: ('A' for Active; 'I' for Inactive)
REMARK    1  A    between atoms: _1  and  _3
REMARK    2  A    between atoms: _14  and  _17
REMARK    3  A    between atoms: _17  and  _18
REMARK    4  A    between atoms: _25  and  _26
REMARK    5  A    between atoms: _33  and  _34
REMARK    6  A    between atoms: _39  and  _41
REMARK    7  A    between atoms: _41  and  _42
REMARK    8  A    between atoms: _44  and  _46
REMARK    9  A    between atoms: _46  and  _47
REMARK   10  A    between atoms: _46  and  _49
REMARK   11  A    between atoms: _49  and  _50
REMARK   12  A    between atoms: _60  and  _62
REMARK   13  A    between atoms: _62  and  _63
REMARK   14  A    between atoms: _62  and  _65
REMARK   15  A    between atoms: _65  and  _66
REMARK   16  A    between atoms: _69  and  _71
REMARK   17  A    between atoms: _71  and  _72
REMARK   18  A    between atoms: _71  and  _74
REMARK   19  A    between atoms: _74  and  _75
REMARK   20  A    between atoms: _80  and  _81
REMARK   21  A    between atoms: _83  and  _85
REMARK   22  A    between atoms: _85  and  _86
REMARK   23  A    between atoms: _85  and  _88
REMARK   24  A    between atoms: _88  and  _89
REMARK   25  A    between atoms: _89  and  _90
REMARK   26  A    between atoms: _93  and  _95
REMARK   27  A    between atoms: _95  and  _96
REMARK   28  A    between atoms: _95  and  _98
REMARK   29  A    between atoms: _98  and  _99
REMARK   30  A    between atoms: _99  and  _100
REMARK   31  A    between atoms: _102  and  _104
REMARK   32  A    between atoms: _104  and  _105
REMARK   33  A    between atoms: _104  and  _107
REMARK   34  A    between atoms: _107  and  _108
REMARK   35  A    between atoms: _111  and  _113
REMARK   36  A    between atoms: _113  and  _114
REMARK   37  A    between atoms: _113  and  _116
REMARK   38  A    between atoms: _116  and  _117
REMARK   39  A    between atoms: _117  and  _119
REMARK   40  A    between atoms: _119  and  ZN_362
REMARK   41  A    between atoms: _121  and  _122
REMARK   42  A    between atoms: _127  and  _129
REMARK   43  A    between atoms: _129  and  _130
REMARK   44  A    between atoms: _129  and  _132
REMARK   45  A    between atoms: _132  and  _133
REMARK   46  A    between atoms: _139  and  _141
REMARK   47  A    between atoms: _141  and  _142
REMARK   48  A    between atoms: _141  and  _144
REMARK   49  A    between atoms: _144  and  _145
REMARK   50  A    between atoms: _145  and  _146
REMARK   51  A    between atoms: _146  and  _147
REMARK   52  A    between atoms: _156  and  _158
REMARK   53  A    between atoms: _158  and  _159
REMARK   54  A    between atoms: _158  and  _161
REMARK   55  A    between atoms: _161  and  _162
REMARK   56  A    between atoms: _164  and  _166
REMARK   57  A    between atoms: _166  and  _167
REMARK   58  A    between atoms: _166  and  _169
REMARK   59  A    between atoms: _169  and  _170
REMARK   60  A    between atoms: _175  and  _176
REMARK   61  A    between atoms: _178  and  _180
REMARK   62  A    between atoms: _180  and  _181
REMARK   63  A    between atoms: _180  and  _183
REMARK   64  A    between atoms: _183  and  _184
REMARK   65  A    between atoms: _187  and  _189
REMARK   66  A    between atoms: _189  and  _190
REMARK   67  A    between atoms: _189  and  _192
REMARK   68  A    between atoms: _192  and  _193
REMARK   69  A    between atoms: _196  and  _198
REMARK   70  A    between atoms: _198  and  _199
REMARK   71  A    between atoms: _198  and  _201
REMARK   72  A    between atoms: _201  and  _202
REMARK   73  A    between atoms: _208  and  _210
REMARK   74  A    between atoms: _210  and  _211
REMARK   75  A    between atoms: _210  and  _213
REMARK   76  A    between atoms: _213  and  _214
REMARK   77  A    between atoms: _219  and  _220
REMARK   78  A    between atoms: _222  and  _224
REMARK   79  A    between atoms: _224  and  _225
REMARK   80  A    between atoms: _224  and  _227
REMARK   81  A    between atoms: _227  and  _228
REMARK   82  A    between atoms: _231  and  _233
REMARK   83  A    between atoms: _233  and  _234
REMARK   84  A    between atoms: _233  and  _236
REMARK   85  A    between atoms: _236  and  _237
REMARK   86  A    between atoms: _247  and  _249
REMARK   87  A    between atoms: _249  and  _250
REMARK   88  A    between atoms: _249  and  _252
REMARK   89  A    between atoms: _252  and  _253
REMARK   90  A    between atoms: _258  and  _260
REMARK   91  A    between atoms: _260  and  _261
REMARK   92  A    between atoms: _260  and  _263
REMARK   93  A    between atoms: _263  and  _264
REMARK   94  A    between atoms: _268  and  ZN_362
REMARK   95  A    between atoms: _269  and  _271
REMARK   96  A    between atoms: _271  and  _272
REMARK   97  A    between atoms: _271  and  _274
REMARK   98  A    between atoms: _274  and  _275
REMARK   99  A    between atoms: _278  and  _280
REMARK  100  A    between atoms: _280  and  _281
REMARK  101  A    between atoms: _283  and  _285
REMARK  102  A    between atoms: _285  and  _286
REMARK  103  A    between atoms: _285  and  _288
REMARK  104  A    between atoms: _288  and  _289
REMARK  105  A    between atoms: _292  and  _294
REMARK  106  A    between atoms: _294  and  _295
REMARK  107  A    between atoms: _294  and  _297
REMARK  108  A    between atoms: _297  and  _298
REMARK  109  A    between atoms: _301  and  _303
REMARK  110  A    between atoms: _303  and  _304
REMARK  111  A    between atoms: _307  and  _309
REMARK  112  A    between atoms: _309  and  _310
REMARK  113  A    between atoms: _309  and  _312
REMARK  114  A    between atoms: _312  and  _313
REMARK  115  A    between atoms: _318  and  _319
REMARK  116  A    between atoms: _321  and  _323
REMARK  117  A    between atoms: _323  and  _324
REMARK  118  A    between atoms: _323  and  _326
REMARK  119  A    between atoms: _326  and  _327
REMARK  120  A    between atoms: _327  and  _328
REMARK  121  A    between atoms: _331  and  _333
REMARK  122  A    between atoms: _333  and  _334
REMARK  123  A    between atoms: _333  and  _336
REMARK  124  A    between atoms: _336  and  _337
REMARK  125  A    between atoms: _337  and  _338
REMARK  126  A    between atoms: _338  and  _339
REMARK  127  A    between atoms: _348  and  _350
REMARK  128  A    between atoms: _350  and  _351
REMARK  129  A    between atoms: _353  and  _355
REMARK  130  A    between atoms: _355  and  _356
REMARK  131  A    between atoms: _355  and  _358
REMARK  132  A    between atoms: _358  and  _359
REMARK                            x       y       z     vdW  Elec       q    Type
REMARK                         _______ _______ _______ _____ _____    ______ ____
ROOT
ATOM      1  O   HOH     1      31.940  71.469  13.666  0.00  0.00    +0.000 OA
ENDROOT
TORSDOF 0
REMARK  Name = ../refined-set-2016/3dx4/3dx4_pocket.pdb
REMARK  132 active torsions:
REMARK  status: ('A' for Active; 'I' for Inactive)
REMARK    1  A    between atoms: _1  and  _3
REMARK    2  A    between atoms: _14  and  _17
REMARK    3  A    between atoms: _17  and  _18
REMARK    4  A    between atoms: _25  and  _26
REMARK    5  A    between atoms: _33  and  _34
REMARK    6  A    between atoms: _39  and  _41
REMARK    7  A    between atoms: _41  and  _42
REMARK    8  A    between atoms: _44  and  _46
REMARK    9  A    between atoms: _46  and  _47
REMARK   10  A    between atoms: _46  and  _49
REMARK   11  A    between atoms: _49  and  _50
REMARK   12  A    between atoms: _60  and  _62
REMARK   13  A    between atoms: _62  and  _63
REMARK   14  A    between atoms: _62  and  _65
REMARK   15  A    between atoms: _65  and  _66
REMARK   16  A    between atoms: _69  and  _71
REMARK   17  A    between atoms: _71  and  _72
REMARK   18  A    between atoms: _71  and  _74
REMARK   19  A    between atoms: _74  and  _75
REMARK   20  A    between atoms: _80  and  _81
REMARK   21  A    between atoms: _83  and  _85
REMARK   22  A    between atoms: _85  and  _86
REMARK   23  A    between atoms: _85  and  _88
REMARK   24  A    between atoms: _88  and  _89
REMARK   25  A    between atoms: _89  and  _90
REMARK   26  A    between atoms: _93  and  _95
REMARK   27  A    between atoms: _95  and  _96
REMARK   28  A    between atoms: _95  and  _98
REMARK   29  A    between atoms: _98  and  _99
REMARK   30  A    between atoms: _99  and  _100
REMARK   31  A    between atoms: _102  and  _104
REMARK   32  A    between atoms: _104  and  _105
REMARK   33  A    between atoms: _104  and  _107
REMARK   34  A    between atoms: _107  and  _108
REMARK   35  A    between atoms: _111  and  _113
REMARK   36  A    between atoms: _113  and  _114
REMARK   37  A    between atoms: _113  and  _116
REMARK   38  A    between atoms: _116  and  _117
REMARK   39  A    between atoms: _117  and  _119
REMARK   40  A    between atoms: _119  and  ZN_362
REMARK   41  A    between atoms: _121  and  _122
REMARK   42  A    between atoms: _127  and  _129
REMARK   43  A    between atoms: _129  and  _130
REMARK   44  A    between atoms: _129  and  _132
REMARK   45  A    between atoms: _132  and  _133
REMARK   46  A    between atoms: _139  and  _141
REMARK   47  A    between atoms: _141  and  _142
REMARK   48  A    between atoms: _141  and  _144
REMARK   49  A    between atoms: _144  and  _145
REMARK   50  A    between atoms: _145  and  _146
REMARK   51  A    between atoms: _146  and  _147
REMARK   52  A    between atoms: _156  and  _158
REMARK   53  A    between atoms: _158  and  _159
REMARK   54  A    between atoms: _158  and  _161
REMARK   55  A    between atoms: _161  and  _162
REMARK   56  A    between atoms: _164  and  _166
REMARK   57  A    between atoms: _166  and  _167
REMARK   58  A    between atoms: _166  and  _169
REMARK   59  A    between atoms: _169  and  _170
REMARK   60  A    between atoms: _175  and  _176
REMARK   61  A    between atoms: _178  and  _180
REMARK   62  A    between atoms: _180  and  _181
REMARK   63  A    between atoms: _180  and  _183
REMARK   64  A    between atoms: _183  and  _184
REMARK   65  A    between atoms: _187  and  _189
REMARK   66  A    between atoms: _189  and  _190
REMARK   67  A    between atoms: _189  and  _192
REMARK   68  A    between atoms: _192  and  _193
REMARK   69  A    between atoms: _196  and  _198
REMARK   70  A    between atoms: _198  and  _199
REMARK   71  A    between atoms: _198  and  _201
REMARK   72  A    between atoms: _201  and  _202
REMARK   73  A    between atoms: _208  and  _210
REMARK   74  A    between atoms: _210  and  _211
REMARK   75  A    between atoms: _210  and  _213
REMARK   76  A    between atoms: _213  and  _214
REMARK   77  A    between atoms: _219  and  _220
REMARK   78  A    between atoms: _222  and  _224
REMARK   79  A    between atoms: _224  and  _225
REMARK   80  A    between atoms: _224  and  _227
REMARK   81  A    between atoms: _227  and  _228
REMARK   82  A    between atoms: _231  and  _233
REMARK   83  A    between atoms: _233  and  _234
REMARK   84  A    between atoms: _233  and  _236
REMARK   85  A    between atoms: _236  and  _237
REMARK   86  A    between atoms: _247  and  _249
REMARK   87  A    between atoms: _249  and  _250
REMARK   88  A    between atoms: _249  and  _252
REMARK   89  A    between atoms: _252  and  _253
REMARK   90  A    between atoms: _258  and  _260
REMARK   91  A    between atoms: _260  and  _261
REMARK   92  A    between atoms: _260  and  _263
REMARK   93  A    between atoms: _263  and  _264
REMARK   94  A    between atoms: _268  and  ZN_362
REMARK   95  A    between atoms: _269  and  _271
REMARK   96  A    between atoms: _271  and  _272
REMARK   97  A    between atoms: _271  and  _274
REMARK   98  A    between atoms: _274  and  _275
REMARK   99  A    between atoms: _278  and  _280
REMARK  100  A    between atoms: _280  and  _281
REMARK  101  A    between atoms: _283  and  _285
REMARK  102  A    between atoms: _285  and  _286
REMARK  103  A    between atoms: _285  and  _288
REMARK  104  A    between atoms: _288  and  _289
REMARK  105  A    between atoms: _292  and  _294
REMARK  106  A    between atoms: _294  and  _295
REMARK  107  A    between atoms: _294  and  _297
REMARK  108  A    between atoms: _297  and  _298
REMARK  109  A    between atoms: _301  and  _303
REMARK  110  A    between atoms: _303  and  _304
REMARK  111  A    between atoms: _307  and  _309
REMARK  112  A    between atoms: _309  and  _310
REMARK  113  A    between atoms: _309  and  _312
REMARK  114  A    between atoms: _312  and  _313
REMARK  115  A    between atoms: _318  and  _319
REMARK  116  A    between atoms: _321  and  _323
REMARK  117  A    between atoms: _323  and  _324
REMARK  118  A    between atoms: _323  and  _326
REMARK  119  A    between atoms: _326  and  _327
REMARK  120  A    between atoms: _327  and  _328
REMARK  121  A    between atoms: _331  and  _333
REMARK  122  A    between atoms: _333  and  _334
REMARK  123  A    between atoms: _333  and  _336
REMARK  124  A    between atoms: _336  and  _337
REMARK  125  A    between atoms: _337  and  _338
REMARK  126  A    between atoms: _338  and  _339
REMARK  127  A    between atoms: _348  and  _350
REMARK  128  A    between atoms: _350  and  _351
REMARK  129  A    between atoms: _353  and  _355
REMARK  130  A    between atoms: _355  and  _356
REMARK  131  A    between atoms: _355  and  _358
REMARK  132  A    between atoms: _358  and  _359
REMARK                            x       y       z     vdW  Elec       q    Type
REMARK                         _______ _______ _______ _____ _____    ______ ____
ROOT
ATOM      1  O   HOH     1      29.600  72.261  12.459  0.00  0.00    +0.000 OA
ENDROOT
TORSDOF 0
REMARK  Name = ../refined-set-2016/3dx4/3dx4_pocket.pdb
REMARK  132 active torsions:
REMARK  status: ('A' for Active; 'I' for Inactive)
REMARK    1  A    between atoms: _1  and  _3
REMARK    2  A    between atoms: _14  and  _17
REMARK    3  A    between atoms: _17  and  _18
REMARK    4  A    between atoms: _25  and  _26
REMARK    5  A    between atoms: _33  and  _34
REMARK    6  A    between atoms: _39  and  _41
REMARK    7  A    between atoms: _41  and  _42
REMARK    8  A    between atoms: _44  and  _46
REMARK    9  A    between atoms: _46  and  _47
REMARK   10  A    between atoms: _46  and  _49
REMARK   11  A    between atoms: _49  and  _50
REMARK   12  A    between atoms: _60  and  _62
REMARK   13  A    between atoms: _62  and  _63
REMARK   14  A    between atoms: _62  and  _65
REMARK   15  A    between atoms: _65  and  _66
REMARK   16  A    between atoms: _69  and  _71
REMARK   17  A    between atoms: _71  and  _72
REMARK   18  A    between atoms: _71  and  _74
REMARK   19  A    between atoms: _74  and  _75
REMARK   20  A    between atoms: _80  and  _81
REMARK   21  A    between atoms: _83  and  _85
REMARK   22  A    between atoms: _85  and  _86
REMARK   23  A    between atoms: _85  and  _88
REMARK   24  A    between atoms: _88  and  _89
REMARK   25  A    between atoms: _89  and  _90
REMARK   26  A    between atoms: _93  and  _95
REMARK   27  A    between atoms: _95  and  _96
REMARK   28  A    between atoms: _95  and  _98
REMARK   29  A    between atoms: _98  and  _99
REMARK   30  A    between atoms: _99  and  _100
REMARK   31  A    between atoms: _102  and  _104
REMARK   32  A    between atoms: _104  and  _105
REMARK   33  A    between atoms: _104  and  _107
REMARK   34  A    between atoms: _107  and  _108
REMARK   35  A    between atoms: _111  and  _113
REMARK   36  A    between atoms: _113  and  _114
REMARK   37  A    between atoms: _113  and  _116
REMARK   38  A    between atoms: _116  and  _117
REMARK   39  A    between atoms: _117  and  _119
REMARK   40  A    between atoms: _119  and  ZN_362
REMARK   41  A    between atoms: _121  and  _122
REMARK   42  A    between atoms: _127  and  _129
REMARK   43  A    between atoms: _129  and  _130
REMARK   44  A    between atoms: _129  and  _132
REMARK   45  A    between atoms: _132  and  _133
REMARK   46  A    between atoms: _139  and  _141
REMARK   47  A    between atoms: _141  and  _142
REMARK   48  A    between atoms: _141  and  _144
REMARK   49  A    between atoms: _144  and  _145
REMARK   50  A    between atoms: _145  and  _146
REMARK   51  A    between atoms: _146  and  _147
REMARK   52  A    between atoms: _156  and  _158
REMARK   53  A    between atoms: _158  and  _159
REMARK   54  A    between atoms: _158  and  _161
REMARK   55  A    between atoms: _161  and  _162
REMARK   56  A    between atoms: _164  and  _166
REMARK   57  A    between atoms: _166  and  _167
REMARK   58  A    between atoms: _166  and  _169
REMARK   59  A    between atoms: _169  and  _170
REMARK   60  A    between atoms: _175  and  _176
REMARK   61  A    between atoms: _178  and  _180
REMARK   62  A    between atoms: _180  and  _181
REMARK   63  A    between atoms: _180  and  _183
REMARK   64  A    between atoms: _183  and  _184
REMARK   65  A    between atoms: _187  and  _189
REMARK   66  A    between atoms: _189  and  _190
REMARK   67  A    between atoms: _189  and  _192
REMARK   68  A    between atoms: _192  and  _193
REMARK   69  A    between atoms: _196  and  _198
REMARK   70  A    between atoms: _198  and  _199
REMARK   71  A    between atoms: _198  and  _201
REMARK   72  A    between atoms: _201  and  _202
REMARK   73  A    between atoms: _208  and  _210
REMARK   74  A    between atoms: _210  and  _211
REMARK   75  A    between atoms: _210  and  _213
REMARK   76  A    between atoms: _213  and  _214
REMARK   77  A    between atoms: _219  and  _220
REMARK   78  A    between atoms: _222  and  _224
REMARK   79  A    between atoms: _224  and  _225
REMARK   80  A    between atoms: _224  and  _227
REMARK   81  A    between atoms: _227  and  _228
REMARK   82  A    between atoms: _231  and  _233
REMARK   83  A    between atoms: _233  and  _234
REMARK   84  A    between atoms: _233  and  _236
REMARK   85  A    between atoms: _236  and  _237
REMARK   86  A    between atoms: _247  and  _249
REMARK   87  A    between atoms: _249  and  _250
REMARK   88  A    between atoms: _249  and  _252
REMARK   89  A    between atoms: _252  and  _253
REMARK   90  A    between atoms: _258  and  _260
REMARK   91  A    between atoms: _260  and  _261
REMARK   92  A    between atoms: _260  and  _263
REMARK   93  A    between atoms: _263  and  _264
REMARK   94  A    between atoms: _268  and  ZN_362
REMARK   95  A    between atoms: _269  and  _271
REMARK   96  A    between atoms: _271  and  _272
REMARK   97  A    between atoms: _271  and  _274
REMARK   98  A    between atoms: _274  and  _275
REMARK   99  A    between atoms: _278  and  _280
REMARK  100  A    between atoms: _280  and  _281
REMARK  101  A    between atoms: _283  and  _285
REMARK  102  A    between atoms: _285  and  _286
REMARK  103  A    between atoms: _285  and  _288
REMARK  104  A    between atoms: _288  and  _289
REMARK  105  A    between atoms: _292  and  _294
REMARK  106  A    between atoms: _294  and  _295
REMARK  107  A    between atoms: _294  and  _297
REMARK  108  A    between atoms: _297  and  _298
REMARK  109  A    between atoms: _301  and  _303
REMARK  110  A    between atoms: _303  and  _304
REMARK  111  A    between atoms: _307  and  _309
REMARK  112  A    between atoms: _309  and  _310
REMARK  113  A    between atoms: _309  and  _312
REMARK  114  A    between atoms: _312  and  _313
REMARK  115  A    between atoms: _318  and  _319
REMARK  116  A    between atoms: _321  and  _323
REMARK  117  A    between atoms: _323  and  _324
REMARK  118  A    between atoms: _323  and  _326
REMARK  119  A    between atoms: _326  and  _327
REMARK  120  A    between atoms: _327  and  _328
REMARK  121  A    between atoms: _331  and  _333
REMARK  122  A    between atoms: _333  and  _334
REMARK  123  A    between atoms: _333  and  _336
REMARK  124  A    between atoms: _336  and  _337
REMARK  125  A    between atoms: _337  and  _338
REMARK  126  A    between atoms: _338  and  _339
REMARK  127  A    between atoms: _348  and  _350
REMARK  128  A    between atoms: _350  and  _351
REMARK  129  A    between atoms: _353  and  _355
REMARK  130  A    between atoms: _355  and  _356
REMARK  131  A    between atoms: _355  and  _358
REMARK  132  A    between atoms: _358  and  _359
REMARK                            x       y       z     vdW  Elec       q    Type
REMARK                         _______ _______ _______ _____ _____    ______ ____
ROOT
ATOM      1  O   HOH     1      28.024  70.029  12.691  0.00  0.00    +0.000 OA
ENDROOT
TORSDOF 0
REMARK  Name = ../refined-set-2016/3dx4/3dx4_pocket.pdb
REMARK  132 active torsions:
REMARK  status: ('A' for Active; 'I' for Inactive)
REMARK    1  A    between atoms: _1  and  _3
REMARK    2  A    between atoms: _14  and  _17
REMARK    3  A    between atoms: _17  and  _18
REMARK    4  A    between atoms: _25  and  _26
REMARK    5  A    between atoms: _33  and  _34
REMARK    6  A    between atoms: _39  and  _41
REMARK    7  A    between atoms: _41  and  _42
REMARK    8  A    between atoms: _44  and  _46
REMARK    9  A    between atoms: _46  and  _47
REMARK   10  A    between atoms: _46  and  _49
REMARK   11  A    between atoms: _49  and  _50
REMARK   12  A    between atoms: _60  and  _62
REMARK   13  A    between atoms: _62  and  _63
REMARK   14  A    between atoms: _62  and  _65
REMARK   15  A    between atoms: _65  and  _66
REMARK   16  A    between atoms: _69  and  _71
REMARK   17  A    between atoms: _71  and  _72
REMARK   18  A    between atoms: _71  and  _74
REMARK   19  A    between atoms: _74  and  _75
REMARK   20  A    between atoms: _80  and  _81
REMARK   21  A    between atoms: _83  and  _85
REMARK   22  A    between atoms: _85  and  _86
REMARK   23  A    between atoms: _85  and  _88
REMARK   24  A    between atoms: _88  and  _89
REMARK   25  A    between atoms: _89  and  _90
REMARK   26  A    between atoms: _93  and  _95
REMARK   27  A    between atoms: _95  and  _96
REMARK   28  A    between atoms: _95  and  _98
REMARK   29  A    between atoms: _98  and  _99
REMARK   30  A    between atoms: _99  and  _100
REMARK   31  A    between atoms: _102  and  _104
REMARK   32  A    between atoms: _104  and  _105
REMARK   33  A    between atoms: _104  and  _107
REMARK   34  A    between atoms: _107  and  _108
REMARK   35  A    between atoms: _111  and  _113
REMARK   36  A    between atoms: _113  and  _114
REMARK   37  A    between atoms: _113  and  _116
REMARK   38  A    between atoms: _116  and  _117
REMARK   39  A    between atoms: _117  and  _119
REMARK   40  A    between atoms: _119  and  ZN_362
REMARK   41  A    between atoms: _121  and  _122
REMARK   42  A    between atoms: _127  and  _129
REMARK   43  A    between atoms: _129  and  _130
REMARK   44  A    between atoms: _129  and  _132
REMARK   45  A    between atoms: _132  and  _133
REMARK   46  A    between atoms: _139  and  _141
REMARK   47  A    between atoms: _141  and  _142
REMARK   48  A    between atoms: _141  and  _144
REMARK   49  A    between atoms: _144  and  _145
REMARK   50  A    between atoms: _145  and  _146
REMARK   51  A    between atoms: _146  and  _147
REMARK   52  A    between atoms: _156  and  _158
REMARK   53  A    between atoms: _158  and  _159
REMARK   54  A    between atoms: _158  and  _161
REMARK   55  A    between atoms: _161  and  _162
REMARK   56  A    between atoms: _164  and  _166
REMARK   57  A    between atoms: _166  and  _167
REMARK   58  A    between atoms: _166  and  _169
REMARK   59  A    between atoms: _169  and  _170
REMARK   60  A    between atoms: _175  and  _176
REMARK   61  A    between atoms: _178  and  _180
REMARK   62  A    between atoms: _180  and  _181
REMARK   63  A    between atoms: _180  and  _183
REMARK   64  A    between atoms: _183  and  _184
REMARK   65  A    between atoms: _187  and  _189
REMARK   66  A    between atoms: _189  and  _190
REMARK   67  A    between atoms: _189  and  _192
REMARK   68  A    between atoms: _192  and  _193
REMARK   69  A    between atoms: _196  and  _198
REMARK   70  A    between atoms: _198  and  _199
REMARK   71  A    between atoms: _198  and  _201
REMARK   72  A    between atoms: _201  and  _202
REMARK   73  A    between atoms: _208  and  _210
REMARK   74  A    between atoms: _210  and  _211
REMARK   75  A    between atoms: _210  and  _213
REMARK   76  A    between atoms: _213  and  _214
REMARK   77  A    between atoms: _219  and  _220
REMARK   78  A    between atoms: _222  and  _224
REMARK   79  A    between atoms: _224  and  _225
REMARK   80  A    between atoms: _224  and  _227
REMARK   81  A    between atoms: _227  and  _228
REMARK   82  A    between atoms: _231  and  _233
REMARK   83  A    between atoms: _233  and  _234
REMARK   84  A    between atoms: _233  and  _236
REMARK   85  A    between atoms: _236  and  _237
REMARK   86  A    between atoms: _247  and  _249
REMARK   87  A    between atoms: _249  and  _250
REMARK   88  A    between atoms: _249  and  _252
REMARK   89  A    between atoms: _252  and  _253
REMARK   90  A    between atoms: _258  and  _260
REMARK   91  A    between atoms: _260  and  _261
REMARK   92  A    between atoms: _260  and  _263
REMARK   93  A    between atoms: _263  and  _264
REMARK   94  A    between atoms: _268  and  ZN_362
REMARK   95  A    between atoms: _269  and  _271
REMARK   96  A    between atoms: _271  and  _272
REMARK   97  A    between atoms: _271  and  _274
REMARK   98  A    between atoms: _274  and  _275
REMARK   99  A    between atoms: _278  and  _280
REMARK  100  A    between atoms: _280  and  _281
REMARK  101  A    between atoms: _283  and  _285
REMARK  102  A    between atoms: _285  and  _286
REMARK  103  A    between atoms: _285  and  _288
REMARK  104  A    between atoms: _288  and  _289
REMARK  105  A    between atoms: _292  and  _294
REMARK  106  A    between atoms: _294  and  _295
REMARK  107  A    between atoms: _294  and  _297
REMARK  108  A    between atoms: _297  and  _298
REMARK  109  A    between atoms: _301  and  _303
REMARK  110  A    between atoms: _303  and  _304
REMARK  111  A    between atoms: _307  and  _309
REMARK  112  A    between atoms: _309  and  _310
REMARK  113  A    between atoms: _309  and  _312
REMARK  114  A    between atoms: _312  and  _313
REMARK  115  A    between atoms: _318  and  _319
REMARK  116  A    between atoms: _321  and  _323
REMARK  117  A    between atoms: _323  and  _324
REMARK  118  A    between atoms: _323  and  _326
REMARK  119  A    between atoms: _326  and  _327
REMARK  120  A    between atoms: _327  and  _328
REMARK  121  A    between atoms: _331  and  _333
REMARK  122  A    between atoms: _333  and  _334
REMARK  123  A    between atoms: _333  and  _336
REMARK  124  A    between atoms: _336  and  _337
REMARK  125  A    between atoms: _337  and  _338
REMARK  126  A    between atoms: _338  and  _339
REMARK  127  A    between atoms: _348  and  _350
REMARK  128  A    between atoms: _350  and  _351
REMARK  129  A    between atoms: _353  and  _355
REMARK  130  A    between atoms: _355  and  _356
REMARK  131  A    between atoms: _355  and  _358
REMARK  132  A    between atoms: _358  and  _359
REMARK                            x       y       z     vdW  Elec       q    Type
REMARK                         _______ _______ _______ _____ _____    ______ ____
ROOT
ATOM      1  O   HOH     1      25.828  65.909  13.424  0.00  0.00    +0.000 OA
ENDROOT
TORSDOF 0
REMARK  Name = ../refined-set-2016/3dx4/3dx4_pocket.pdb
REMARK  132 active torsions:
REMARK  status: ('A' for Active; 'I' for Inactive)
REMARK    1  A    between atoms: _1  and  _3
REMARK    2  A    between atoms: _14  and  _17
REMARK    3  A    between atoms: _17  and  _18
REMARK    4  A    between atoms: _25  and  _26
REMARK    5  A    between atoms: _33  and  _34
REMARK    6  A    between atoms: _39  and  _41
REMARK    7  A    between atoms: _41  and  _42
REMARK    8  A    between atoms: _44  and  _46
REMARK    9  A    between atoms: _46  and  _47
REMARK   10  A    between atoms: _46  and  _49
REMARK   11  A    between atoms: _49  and  _50
REMARK   12  A    between atoms: _60  and  _62
REMARK   13  A    between atoms: _62  and  _63
REMARK   14  A    between atoms: _62  and  _65
REMARK   15  A    between atoms: _65  and  _66
REMARK   16  A    between atoms: _69  and  _71
REMARK   17  A    between atoms: _71  and  _72
REMARK   18  A    between atoms: _71  and  _74
REMARK   19  A    between atoms: _74  and  _75
REMARK   20  A    between atoms: _80  and  _81
REMARK   21  A    between atoms: _83  and  _85
REMARK   22  A    between atoms: _85  and  _86
REMARK   23  A    between atoms: _85  and  _88
REMARK   24  A    between atoms: _88  and  _89
REMARK   25  A    between atoms: _89  and  _90
REMARK   26  A    between atoms: _93  and  _95
REMARK   27  A    between atoms: _95  and  _96
REMARK   28  A    between atoms: _95  and  _98
REMARK   29  A    between atoms: _98  and  _99
REMARK   30  A    between atoms: _99  and  _100
REMARK   31  A    between atoms: _102  and  _104
REMARK   32  A    between atoms: _104  and  _105
REMARK   33  A    between atoms: _104  and  _107
REMARK   34  A    between atoms: _107  and  _108
REMARK   35  A    between atoms: _111  and  _113
REMARK   36  A    between atoms: _113  and  _114
REMARK   37  A    between atoms: _113  and  _116
REMARK   38  A    between atoms: _116  and  _117
REMARK   39  A    between atoms: _117  and  _119
REMARK   40  A    between atoms: _119  and  ZN_362
REMARK   41  A    between atoms: _121  and  _122
REMARK   42  A    between atoms: _127  and  _129
REMARK   43  A    between atoms: _129  and  _130
REMARK   44  A    between atoms: _129  and  _132
REMARK   45  A    between atoms: _132  and  _133
REMARK   46  A    between atoms: _139  and  _141
REMARK   47  A    between atoms: _141  and  _142
REMARK   48  A    between atoms: _141  and  _144
REMARK   49  A    between atoms: _144  and  _145
REMARK   50  A    between atoms: _145  and  _146
REMARK   51  A    between atoms: _146  and  _147
REMARK   52  A    between atoms: _156  and  _158
REMARK   53  A    between atoms: _158  and  _159
REMARK   54  A    between atoms: _158  and  _161
REMARK   55  A    between atoms: _161  and  _162
REMARK   56  A    between atoms: _164  and  _166
REMARK   57  A    between atoms: _166  and  _167
REMARK   58  A    between atoms: _166  and  _169
REMARK   59  A    between atoms: _169  and  _170
REMARK   60  A    between atoms: _175  and  _176
REMARK   61  A    between atoms: _178  and  _180
REMARK   62  A    between atoms: _180  and  _181
REMARK   63  A    between atoms: _180  and  _183
REMARK   64  A    between atoms: _183  and  _184
REMARK   65  A    between atoms: _187  and  _189
REMARK   66  A    between atoms: _189  and  _190
REMARK   67  A    between atoms: _189  and  _192
REMARK   68  A    between atoms: _192  and  _193
REMARK   69  A    between atoms: _196  and  _198
REMARK   70  A    between atoms: _198  and  _199
REMARK   71  A    between atoms: _198  and  _201
REMARK   72  A    between atoms: _201  and  _202
REMARK   73  A    between atoms: _208  and  _210
REMARK   74  A    between atoms: _210  and  _211
REMARK   75  A    between atoms: _210  and  _213
REMARK   76  A    between atoms: _213  and  _214
REMARK   77  A    between atoms: _219  and  _220
REMARK   78  A    between atoms: _222  and  _224
REMARK   79  A    between atoms: _224  and  _225
REMARK   80  A    between atoms: _224  and  _227
REMARK   81  A    between atoms: _227  and  _228
REMARK   82  A    between atoms: _231  and  _233
REMARK   83  A    between atoms: _233  and  _234
REMARK   84  A    between atoms: _233  and  _236
REMARK   85  A    between atoms: _236  and  _237
REMARK   86  A    between atoms: _247  and  _249
REMARK   87  A    between atoms: _249  and  _250
REMARK   88  A    between atoms: _249  and  _252
REMARK   89  A    between atoms: _252  and  _253
REMARK   90  A    between atoms: _258  and  _260
REMARK   91  A    between atoms: _260  and  _261
REMARK   92  A    between atoms: _260  and  _263
REMARK   93  A    between atoms: _263  and  _264
REMARK   94  A    between atoms: _268  and  ZN_362
REMARK   95  A    between atoms: _269  and  _271
REMARK   96  A    between atoms: _271  and  _272
REMARK   97  A    between atoms: _271  and  _274
REMARK   98  A    between atoms: _274  and  _275
REMARK   99  A    between atoms: _278  and  _280
REMARK  100  A    between atoms: _280  and  _281
REMARK  101  A    between atoms: _283  and  _285
REMARK  102  A    between atoms: _285  and  _286
REMARK  103  A    between atoms: _285  and  _288
REMARK  104  A    between atoms: _288  and  _289
REMARK  105  A    between atoms: _292  and  _294
REMARK  106  A    between atoms: _294  and  _295
REMARK  107  A    between atoms: _294  and  _297
REMARK  108  A    between atoms: _297  and  _298
REMARK  109  A    between atoms: _301  and  _303
REMARK  110  A    between atoms: _303  and  _304
REMARK  111  A    between atoms: _307  and  _309
REMARK  112  A    between atoms: _309  and  _310
REMARK  113  A    between atoms: _309  and  _312
REMARK  114  A    between atoms: _312  and  _313
REMARK  115  A    between atoms: _318  and  _319
REMARK  116  A    between atoms: _321  and  _323
REMARK  117  A    between atoms: _323  and  _324
REMARK  118  A    between atoms: _323  and  _326
REMARK  119  A    between atoms: _326  and  _327
REMARK  120  A    between atoms: _327  and  _328
REMARK  121  A    between atoms: _331  and  _333
REMARK  122  A    between atoms: _333  and  _334
REMARK  123  A    between atoms: _333  and  _336
REMARK  124  A    between atoms: _336  and  _337
REMARK  125  A    between atoms: _337  and  _338
REMARK  126  A    between atoms: _338  and  _339
REMARK  127  A    between atoms: _348  and  _350
REMARK  128  A    between atoms: _350  and  _351
REMARK  129  A    between atoms: _353  and  _355
REMARK  130  A    between atoms: _355  and  _356
REMARK  131  A    between atoms: _355  and  _358
REMARK  132  A    between atoms: _358  and  _359
REMARK                            x       y       z     vdW  Elec       q    Type
REMARK                         _______ _______ _______ _____ _____    ______ ____
ROOT
ATOM      1  O   HOH     1      29.300  65.705  15.512  0.00  0.00    +0.000 OA
ENDROOT
TORSDOF 0
REMARK  Name = ../refined-set-2016/3dx4/3dx4_pocket.pdb
REMARK  132 active torsions:
REMARK  status: ('A' for Active; 'I' for Inactive)
REMARK    1  A    between atoms: _1  and  _3
REMARK    2  A    between atoms: _14  and  _17
REMARK    3  A    between atoms: _17  and  _18
REMARK    4  A    between atoms: _25  and  _26
REMARK    5  A    between atoms: _33  and  _34
REMARK    6  A    between atoms: _39  and  _41
REMARK    7  A    between atoms: _41  and  _42
REMARK    8  A    between atoms: _44  and  _46
REMARK    9  A    between atoms: _46  and  _47
REMARK   10  A    between atoms: _46  and  _49
REMARK   11  A    between atoms: _49  and  _50
REMARK   12  A    between atoms: _60  and  _62
REMARK   13  A    between atoms: _62  and  _63
REMARK   14  A    between atoms: _62  and  _65
REMARK   15  A    between atoms: _65  and  _66
REMARK   16  A    between atoms: _69  and  _71
REMARK   17  A    between atoms: _71  and  _72
REMARK   18  A    between atoms: _71  and  _74
REMARK   19  A    between atoms: _74  and  _75
REMARK   20  A    between atoms: _80  and  _81
REMARK   21  A    between atoms: _83  and  _85
REMARK   22  A    between atoms: _85  and  _86
REMARK   23  A    between atoms: _85  and  _88
REMARK   24  A    between atoms: _88  and  _89
REMARK   25  A    between atoms: _89  and  _90
REMARK   26  A    between atoms: _93  and  _95
REMARK   27  A    between atoms: _95  and  _96
REMARK   28  A    between atoms: _95  and  _98
REMARK   29  A    between atoms: _98  and  _99
REMARK   30  A    between atoms: _99  and  _100
REMARK   31  A    between atoms: _102  and  _104
REMARK   32  A    between atoms: _104  and  _105
REMARK   33  A    between atoms: _104  and  _107
REMARK   34  A    between atoms: _107  and  _108
REMARK   35  A    between atoms: _111  and  _113
REMARK   36  A    between atoms: _113  and  _114
REMARK   37  A    between atoms: _113  and  _116
REMARK   38  A    between atoms: _116  and  _117
REMARK   39  A    between atoms: _117  and  _119
REMARK   40  A    between atoms: _119  and  ZN_362
REMARK   41  A    between atoms: _121  and  _122
REMARK   42  A    between atoms: _127  and  _129
REMARK   43  A    between atoms: _129  and  _130
REMARK   44  A    between atoms: _129  and  _132
REMARK   45  A    between atoms: _132  and  _133
REMARK   46  A    between atoms: _139  and  _141
REMARK   47  A    between atoms: _141  and  _142
REMARK   48  A    between atoms: _141  and  _144
REMARK   49  A    between atoms: _144  and  _145
REMARK   50  A    between atoms: _145  and  _146
REMARK   51  A    between atoms: _146  and  _147
REMARK   52  A    between atoms: _156  and  _158
REMARK   53  A    between atoms: _158  and  _159
REMARK   54  A    between atoms: _158  and  _161
REMARK   55  A    between atoms: _161  and  _162
REMARK   56  A    between atoms: _164  and  _166
REMARK   57  A    between atoms: _166  and  _167
REMARK   58  A    between atoms: _166  and  _169
REMARK   59  A    between atoms: _169  and  _170
REMARK   60  A    between atoms: _175  and  _176
REMARK   61  A    between atoms: _178  and  _180
REMARK   62  A    between atoms: _180  and  _181
REMARK   63  A    between atoms: _180  and  _183
REMARK   64  A    between atoms: _183  and  _184
REMARK   65  A    between atoms: _187  and  _189
REMARK   66  A    between atoms: _189  and  _190
REMARK   67  A    between atoms: _189  and  _192
REMARK   68  A    between atoms: _192  and  _193
REMARK   69  A    between atoms: _196  and  _198
REMARK   70  A    between atoms: _198  and  _199
REMARK   71  A    between atoms: _198  and  _201
REMARK   72  A    between atoms: _201  and  _202
REMARK   73  A    between atoms: _208  and  _210
REMARK   74  A    between atoms: _210  and  _211
REMARK   75  A    between atoms: _210  and  _213
REMARK   76  A    between atoms: _213  and  _214
REMARK   77  A    between atoms: _219  and  _220
REMARK   78  A    between atoms: _222  and  _224
REMARK   79  A    between atoms: _224  and  _225
REMARK   80  A    between atoms: _224  and  _227
REMARK   81  A    between atoms: _227  and  _228
REMARK   82  A    between atoms: _231  and  _233
REMARK   83  A    between atoms: _233  and  _234
REMARK   84  A    between atoms: _233  and  _236
REMARK   85  A    between atoms: _236  and  _237
REMARK   86  A    between atoms: _247  and  _249
REMARK   87  A    between atoms: _249  and  _250
REMARK   88  A    between atoms: _249  and  _252
REMARK   89  A    between atoms: _252  and  _253
REMARK   90  A    between atoms: _258  and  _260
REMARK   91  A    between atoms: _260  and  _261
REMARK   92  A    between atoms: _260  and  _263
REMARK   93  A    between atoms: _263  and  _264
REMARK   94  A    between atoms: _268  and  ZN_362
REMARK   95  A    between atoms: _269  and  _271
REMARK   96  A    between atoms: _271  and  _272
REMARK   97  A    between atoms: _271  and  _274
REMARK   98  A    between atoms: _274  and  _275
REMARK   99  A    between atoms: _278  and  _280
REMARK  100  A    between atoms: _280  and  _281
REMARK  101  A    between atoms: _283  and  _285
REMARK  102  A    between atoms: _285  and  _286
REMARK  103  A    between atoms: _285  and  _288
REMARK  104  A    between atoms: _288  and  _289
REMARK  105  A    between atoms: _292  and  _294
REMARK  106  A    between atoms: _294  and  _295
REMARK  107  A    between atoms: _294  and  _297
REMARK  108  A    between atoms: _297  and  _298
REMARK  109  A    between atoms: _301  and  _303
REMARK  110  A    between atoms: _303  and  _304
REMARK  111  A    between atoms: _307  and  _309
REMARK  112  A    between atoms: _309  and  _310
REMARK  113  A    between atoms: _309  and  _312
REMARK  114  A    between atoms: _312  and  _313
REMARK  115  A    between atoms: _318  and  _319
REMARK  116  A    between atoms: _321  and  _323
REMARK  117  A    between atoms: _323  and  _324
REMARK  118  A    between atoms: _323  and  _326
REMARK  119  A    between atoms: _326  and  _327
REMARK  120  A    between atoms: _327  and  _328
REMARK  121  A    between atoms: _331  and  _333
REMARK  122  A    between atoms: _333  and  _334
REMARK  123  A    between atoms: _333  and  _336
REMARK  124  A    between atoms: _336  and  _337
REMARK  125  A    between atoms: _337  and  _338
REMARK  126  A    between atoms: _338  and  _339
REMARK  127  A    between atoms: _348  and  _350
REMARK  128  A    between atoms: _350  and  _351
REMARK  129  A    between atoms: _353  and  _355
REMARK  130  A    between atoms: _355  and  _356
REMARK  131  A    between atoms: _355  and  _358
REMARK  132  A    between atoms: _358  and  _359
REMARK                            x       y       z     vdW  Elec       q    Type
REMARK                         _______ _______ _______ _____ _____    ______ ____
ROOT
ATOM      1  O   HOH     1      34.601  70.178  13.091  0.00  0.00    +0.000 OA
ENDROOT
TORSDOF 0
REMARK  Name = ../refined-set-2016/3dx4/3dx4_pocket.pdb
REMARK  132 active torsions:
REMARK  status: ('A' for Active; 'I' for Inactive)
REMARK    1  A    between atoms: _1  and  _3
REMARK    2  A    between atoms: _14  and  _17
REMARK    3  A    between atoms: _17  and  _18
REMARK    4  A    between atoms: _25  and  _26
REMARK    5  A    between atoms: _33  and  _34
REMARK    6  A    between atoms: _39  and  _41
REMARK    7  A    between atoms: _41  and  _42
REMARK    8  A    between atoms: _44  and  _46
REMARK    9  A    between atoms: _46  and  _47
REMARK   10  A    between atoms: _46  and  _49
REMARK   11  A    between atoms: _49  and  _50
REMARK   12  A    between atoms: _60  and  _62
REMARK   13  A    between atoms: _62  and  _63
REMARK   14  A    between atoms: _62  and  _65
REMARK   15  A    between atoms: _65  and  _66
REMARK   16  A    between atoms: _69  and  _71
REMARK   17  A    between atoms: _71  and  _72
REMARK   18  A    between atoms: _71  and  _74
REMARK   19  A    between atoms: _74  and  _75
REMARK   20  A    between atoms: _80  and  _81
REMARK   21  A    between atoms: _83  and  _85
REMARK   22  A    between atoms: _85  and  _86
REMARK   23  A    between atoms: _85  and  _88
REMARK   24  A    between atoms: _88  and  _89
REMARK   25  A    between atoms: _89  and  _90
REMARK   26  A    between atoms: _93  and  _95
REMARK   27  A    between atoms: _95  and  _96
REMARK   28  A    between atoms: _95  and  _98
REMARK   29  A    between atoms: _98  and  _99
REMARK   30  A    between atoms: _99  and  _100
REMARK   31  A    between atoms: _102  and  _104
REMARK   32  A    between atoms: _104  and  _105
REMARK   33  A    between atoms: _104  and  _107
REMARK   34  A    between atoms: _107  and  _108
REMARK   35  A    between atoms: _111  and  _113
REMARK   36  A    between atoms: _113  and  _114
REMARK   37  A    between atoms: _113  and  _116
REMARK   38  A    between atoms: _116  and  _117
REMARK   39  A    between atoms: _117  and  _119
REMARK   40  A    between atoms: _119  and  ZN_362
REMARK   41  A    between atoms: _121  and  _122
REMARK   42  A    between atoms: _127  and  _129
REMARK   43  A    between atoms: _129  and  _130
REMARK   44  A    between atoms: _129  and  _132
REMARK   45  A    between atoms: _132  and  _133
REMARK   46  A    between atoms: _139  and  _141
REMARK   47  A    between atoms: _141  and  _142
REMARK   48  A    between atoms: _141  and  _144
REMARK   49  A    between atoms: _144  and  _145
REMARK   50  A    between atoms: _145  and  _146
REMARK   51  A    between atoms: _146  and  _147
REMARK   52  A    between atoms: _156  and  _158
REMARK   53  A    between atoms: _158  and  _159
REMARK   54  A    between atoms: _158  and  _161
REMARK   55  A    between atoms: _161  and  _162
REMARK   56  A    between atoms: _164  and  _166
REMARK   57  A    between atoms: _166  and  _167
REMARK   58  A    between atoms: _166  and  _169
REMARK   59  A    between atoms: _169  and  _170
REMARK   60  A    between atoms: _175  and  _176
REMARK   61  A    between atoms: _178  and  _180
REMARK   62  A    between atoms: _180  and  _181
REMARK   63  A    between atoms: _180  and  _183
REMARK   64  A    between atoms: _183  and  _184
REMARK   65  A    between atoms: _187  and  _189
REMARK   66  A    between atoms: _189  and  _190
REMARK   67  A    between atoms: _189  and  _192
REMARK   68  A    between atoms: _192  and  _193
REMARK   69  A    between atoms: _196  and  _198
REMARK   70  A    between atoms: _198  and  _199
REMARK   71  A    between atoms: _198  and  _201
REMARK   72  A    between atoms: _201  and  _202
REMARK   73  A    between atoms: _208  and  _210
REMARK   74  A    between atoms: _210  and  _211
REMARK   75  A    between atoms: _210  and  _213
REMARK   76  A    between atoms: _213  and  _214
REMARK   77  A    between atoms: _219  and  _220
REMARK   78  A    between atoms: _222  and  _224
REMARK   79  A    between atoms: _224  and  _225
REMARK   80  A    between atoms: _224  and  _227
REMARK   81  A    between atoms: _227  and  _228
REMARK   82  A    between atoms: _231  and  _233
REMARK   83  A    between atoms: _233  and  _234
REMARK   84  A    between atoms: _233  and  _236
REMARK   85  A    between atoms: _236  and  _237
REMARK   86  A    between atoms: _247  and  _249
REMARK   87  A    between atoms: _249  and  _250
REMARK   88  A    between atoms: _249  and  _252
REMARK   89  A    between atoms: _252  and  _253
REMARK   90  A    between atoms: _258  and  _260
REMARK   91  A    between atoms: _260  and  _261
REMARK   92  A    between atoms: _260  and  _263
REMARK   93  A    between atoms: _263  and  _264
REMARK   94  A    between atoms: _268  and  ZN_362
REMARK   95  A    between atoms: _269  and  _271
REMARK   96  A    between atoms: _271  and  _272
REMARK   97  A    between atoms: _271  and  _274
REMARK   98  A    between atoms: _274  and  _275
REMARK   99  A    between atoms: _278  and  _280
REMARK  100  A    between atoms: _280  and  _281
REMARK  101  A    between atoms: _283  and  _285
REMARK  102  A    between atoms: _285  and  _286
REMARK  103  A    between atoms: _285  and  _288
REMARK  104  A    between atoms: _288  and  _289
REMARK  105  A    between atoms: _292  and  _294
REMARK  106  A    between atoms: _294  and  _295
REMARK  107  A    between atoms: _294  and  _297
REMARK  108  A    between atoms: _297  and  _298
REMARK  109  A    between atoms: _301  and  _303
REMARK  110  A    between atoms: _303  and  _304
REMARK  111  A    between atoms: _307  and  _309
REMARK  112  A    between atoms: _309  and  _310
REMARK  113  A    between atoms: _309  and  _312
REMARK  114  A    between atoms: _312  and  _313
REMARK  115  A    between atoms: _318  and  _319
REMARK  116  A    between atoms: _321  and  _323
REMARK  117  A    between atoms: _323  and  _324
REMARK  118  A    between atoms: _323  and  _326
REMARK  119  A    between atoms: _326  and  _327
REMARK  120  A    between atoms: _327  and  _328
REMARK  121  A    between atoms: _331  and  _333
REMARK  122  A    between atoms: _333  and  _334
REMARK  123  A    between atoms: _333  and  _336
REMARK  124  A    between atoms: _336  and  _337
REMARK  125  A    between atoms: _337  and  _338
REMARK  126  A    between atoms: _338  and  _339
REMARK  127  A    between atoms: _348  and  _350
REMARK  128  A    between atoms: _350  and  _351
REMARK  129  A    between atoms: _353  and  _355
REMARK  130  A    between atoms: _355  and  _356
REMARK  131  A    between atoms: _355  and  _358
REMARK  132  A    between atoms: _358  and  _359
REMARK                            x       y       z     vdW  Elec       q    Type
REMARK                         _______ _______ _______ _____ _____    ______ ____
ROOT
ATOM      1  O   HOH     1      34.088  67.594  12.327  0.00  0.00    +0.000 OA
ENDROOT
TORSDOF 0
REMARK  Name = ../refined-set-2016/3dx4/3dx4_pocket.pdb
REMARK  132 active torsions:
REMARK  status: ('A' for Active; 'I' for Inactive)
REMARK    1  A    between atoms: _1  and  _3
REMARK    2  A    between atoms: _14  and  _17
REMARK    3  A    between atoms: _17  and  _18
REMARK    4  A    between atoms: _25  and  _26
REMARK    5  A    between atoms: _33  and  _34
REMARK    6  A    between atoms: _39  and  _41
REMARK    7  A    between atoms: _41  and  _42
REMARK    8  A    between atoms: _44  and  _46
REMARK    9  A    between atoms: _46  and  _47
REMARK   10  A    between atoms: _46  and  _49
REMARK   11  A    between atoms: _49  and  _50
REMARK   12  A    between atoms: _60  and  _62
REMARK   13  A    between atoms: _62  and  _63
REMARK   14  A    between atoms: _62  and  _65
REMARK   15  A    between atoms: _65  and  _66
REMARK   16  A    between atoms: _69  and  _71
REMARK   17  A    between atoms: _71  and  _72
REMARK   18  A    between atoms: _71  and  _74
REMARK   19  A    between atoms: _74  and  _75
REMARK   20  A    between atoms: _80  and  _81
REMARK   21  A    between atoms: _83  and  _85
REMARK   22  A    between atoms: _85  and  _86
REMARK   23  A    between atoms: _85  and  _88
REMARK   24  A    between atoms: _88  and  _89
REMARK   25  A    between atoms: _89  and  _90
REMARK   26  A    between atoms: _93  and  _95
REMARK   27  A    between atoms: _95  and  _96
REMARK   28  A    between atoms: _95  and  _98
REMARK   29  A    between atoms: _98  and  _99
REMARK   30  A    between atoms: _99  and  _100
REMARK   31  A    between atoms: _102  and  _104
REMARK   32  A    between atoms: _104  and  _105
REMARK   33  A    between atoms: _104  and  _107
REMARK   34  A    between atoms: _107  and  _108
REMARK   35  A    between atoms: _111  and  _113
REMARK   36  A    between atoms: _113  and  _114
REMARK   37  A    between atoms: _113  and  _116
REMARK   38  A    between atoms: _116  and  _117
REMARK   39  A    between atoms: _117  and  _119
REMARK   40  A    between atoms: _119  and  ZN_362
REMARK   41  A    between atoms: _121  and  _122
REMARK   42  A    between atoms: _127  and  _129
REMARK   43  A    between atoms: _129  and  _130
REMARK   44  A    between atoms: _129  and  _132
REMARK   45  A    between atoms: _132  and  _133
REMARK   46  A    between atoms: _139  and  _141
REMARK   47  A    between atoms: _141  and  _142
REMARK   48  A    between atoms: _141  and  _144
REMARK   49  A    between atoms: _144  and  _145
REMARK   50  A    between atoms: _145  and  _146
REMARK   51  A    between atoms: _146  and  _147
REMARK   52  A    between atoms: _156  and  _158
REMARK   53  A    between atoms: _158  and  _159
REMARK   54  A    between atoms: _158  and  _161
REMARK   55  A    between atoms: _161  and  _162
REMARK   56  A    between atoms: _164  and  _166
REMARK   57  A    between atoms: _166  and  _167
REMARK   58  A    between atoms: _166  and  _169
REMARK   59  A    between atoms: _169  and  _170
REMARK   60  A    between atoms: _175  and  _176
REMARK   61  A    between atoms: _178  and  _180
REMARK   62  A    between atoms: _180  and  _181
REMARK   63  A    between atoms: _180  and  _183
REMARK   64  A    between atoms: _183  and  _184
REMARK   65  A    between atoms: _187  and  _189
REMARK   66  A    between atoms: _189  and  _190
REMARK   67  A    between atoms: _189  and  _192
REMARK   68  A    between atoms: _192  and  _193
REMARK   69  A    between atoms: _196  and  _198
REMARK   70  A    between atoms: _198  and  _199
REMARK   71  A    between atoms: _198  and  _201
REMARK   72  A    between atoms: _201  and  _202
REMARK   73  A    between atoms: _208  and  _210
REMARK   74  A    between atoms: _210  and  _211
REMARK   75  A    between atoms: _210  and  _213
REMARK   76  A    between atoms: _213  and  _214
REMARK   77  A    between atoms: _219  and  _220
REMARK   78  A    between atoms: _222  and  _224
REMARK   79  A    between atoms: _224  and  _225
REMARK   80  A    between atoms: _224  and  _227
REMARK   81  A    between atoms: _227  and  _228
REMARK   82  A    between atoms: _231  and  _233
REMARK   83  A    between atoms: _233  and  _234
REMARK   84  A    between atoms: _233  and  _236
REMARK   85  A    between atoms: _236  and  _237
REMARK   86  A    between atoms: _247  and  _249
REMARK   87  A    between atoms: _249  and  _250
REMARK   88  A    between atoms: _249  and  _252
REMARK   89  A    between atoms: _252  and  _253
REMARK   90  A    between atoms: _258  and  _260
REMARK   91  A    between atoms: _260  and  _261
REMARK   92  A    between atoms: _260  and  _263
REMARK   93  A    between atoms: _263  and  _264
REMARK   94  A    between atoms: _268  and  ZN_362
REMARK   95  A    between atoms: _269  and  _271
REMARK   96  A    between atoms: _271  and  _272
REMARK   97  A    between atoms: _271  and  _274
REMARK   98  A    between atoms: _274  and  _275
REMARK   99  A    between atoms: _278  and  _280
REMARK  100  A    between atoms: _280  and  _281
REMARK  101  A    between atoms: _283  and  _285
REMARK  102  A    between atoms: _285  and  _286
REMARK  103  A    between atoms: _285  and  _288
REMARK  104  A    between atoms: _288  and  _289
REMARK  105  A    between atoms: _292  and  _294
REMARK  106  A    between atoms: _294  and  _295
REMARK  107  A    between atoms: _294  and  _297
REMARK  108  A    between atoms: _297  and  _298
REMARK  109  A    between atoms: _301  and  _303
REMARK  110  A    between atoms: _303  and  _304
REMARK  111  A    between atoms: _307  and  _309
REMARK  112  A    between atoms: _309  and  _310
REMARK  113  A    between atoms: _309  and  _312
REMARK  114  A    between atoms: _312  and  _313
REMARK  115  A    between atoms: _318  and  _319
REMARK  116  A    between atoms: _321  and  _323
REMARK  117  A    between atoms: _323  and  _324
REMARK  118  A    between atoms: _323  and  _326
REMARK  119  A    between atoms: _326  and  _327
REMARK  120  A    between atoms: _327  and  _328
REMARK  121  A    between atoms: _331  and  _333
REMARK  122  A    between atoms: _333  and  _334
REMARK  123  A    between atoms: _333  and  _336
REMARK  124  A    between atoms: _336  and  _337
REMARK  125  A    between atoms: _337  and  _338
REMARK  126  A    between atoms: _338  and  _339
REMARK  127  A    between atoms: _348  and  _350
REMARK  128  A    between atoms: _350  and  _351
REMARK  129  A    between atoms: _353  and  _355
REMARK  130  A    between atoms: _355  and  _356
REMARK  131  A    between atoms: _355  and  _358
REMARK  132  A    between atoms: _358  and  _359
REMARK                            x       y       z     vdW  Elec       q    Type
REMARK                         _______ _______ _______ _____ _____    ______ ____
ROOT
ATOM      1  O   HOH     1      33.191  68.252  16.805  0.00  0.00    +0.000 OA
ENDROOT
TORSDOF 0
REMARK  Name = ../refined-set-2016/3dx4/3dx4_pocket.pdb
REMARK  132 active torsions:
REMARK  status: ('A' for Active; 'I' for Inactive)
REMARK    1  A    between atoms: _1  and  _3
REMARK    2  A    between atoms: _14  and  _17
REMARK    3  A    between atoms: _17  and  _18
REMARK    4  A    between atoms: _25  and  _26
REMARK    5  A    between atoms: _33  and  _34
REMARK    6  A    between atoms: _39  and  _41
REMARK    7  A    between atoms: _41  and  _42
REMARK    8  A    between atoms: _44  and  _46
REMARK    9  A    between atoms: _46  and  _47
REMARK   10  A    between atoms: _46  and  _49
REMARK   11  A    between atoms: _49  and  _50
REMARK   12  A    between atoms: _60  and  _62
REMARK   13  A    between atoms: _62  and  _63
REMARK   14  A    between atoms: _62  and  _65
REMARK   15  A    between atoms: _65  and  _66
REMARK   16  A    between atoms: _69  and  _71
REMARK   17  A    between atoms: _71  and  _72
REMARK   18  A    between atoms: _71  and  _74
REMARK   19  A    between atoms: _74  and  _75
REMARK   20  A    between atoms: _80  and  _81
REMARK   21  A    between atoms: _83  and  _85
REMARK   22  A    between atoms: _85  and  _86
REMARK   23  A    between atoms: _85  and  _88
REMARK   24  A    between atoms: _88  and  _89
REMARK   25  A    between atoms: _89  and  _90
REMARK   26  A    between atoms: _93  and  _95
REMARK   27  A    between atoms: _95  and  _96
REMARK   28  A    between atoms: _95  and  _98
REMARK   29  A    between atoms: _98  and  _99
REMARK   30  A    between atoms: _99  and  _100
REMARK   31  A    between atoms: _102  and  _104
REMARK   32  A    between atoms: _104  and  _105
REMARK   33  A    between atoms: _104  and  _107
REMARK   34  A    between atoms: _107  and  _108
REMARK   35  A    between atoms: _111  and  _113
REMARK   36  A    between atoms: _113  and  _114
REMARK   37  A    between atoms: _113  and  _116
REMARK   38  A    between atoms: _116  and  _117
REMARK   39  A    between atoms: _117  and  _119
REMARK   40  A    between atoms: _119  and  ZN_362
REMARK   41  A    between atoms: _121  and  _122
REMARK   42  A    between atoms: _127  and  _129
REMARK   43  A    between atoms: _129  and  _130
REMARK   44  A    between atoms: _129  and  _132
REMARK   45  A    between atoms: _132  and  _133
REMARK   46  A    between atoms: _139  and  _141
REMARK   47  A    between atoms: _141  and  _142
REMARK   48  A    between atoms: _141  and  _144
REMARK   49  A    between atoms: _144  and  _145
REMARK   50  A    between atoms: _145  and  _146
REMARK   51  A    between atoms: _146  and  _147
REMARK   52  A    between atoms: _156  and  _158
REMARK   53  A    between atoms: _158  and  _159
REMARK   54  A    between atoms: _158  and  _161
REMARK   55  A    between atoms: _161  and  _162
REMARK   56  A    between atoms: _164  and  _166
REMARK   57  A    between atoms: _166  and  _167
REMARK   58  A    between atoms: _166  and  _169
REMARK   59  A    between atoms: _169  and  _170
REMARK   60  A    between atoms: _175  and  _176
REMARK   61  A    between atoms: _178  and  _180
REMARK   62  A    between atoms: _180  and  _181
REMARK   63  A    between atoms: _180  and  _183
REMARK   64  A    between atoms: _183  and  _184
REMARK   65  A    between atoms: _187  and  _189
REMARK   66  A    between atoms: _189  and  _190
REMARK   67  A    between atoms: _189  and  _192
REMARK   68  A    between atoms: _192  and  _193
REMARK   69  A    between atoms: _196  and  _198
REMARK   70  A    between atoms: _198  and  _199
REMARK   71  A    between atoms: _198  and  _201
REMARK   72  A    between atoms: _201  and  _202
REMARK   73  A    between atoms: _208  and  _210
REMARK   74  A    between atoms: _210  and  _211
REMARK   75  A    between atoms: _210  and  _213
REMARK   76  A    between atoms: _213  and  _214
REMARK   77  A    between atoms: _219  and  _220
REMARK   78  A    between atoms: _222  and  _224
REMARK   79  A    between atoms: _224  and  _225
REMARK   80  A    between atoms: _224  and  _227
REMARK   81  A    between atoms: _227  and  _228
REMARK   82  A    between atoms: _231  and  _233
REMARK   83  A    between atoms: _233  and  _234
REMARK   84  A    between atoms: _233  and  _236
REMARK   85  A    between atoms: _236  and  _237
REMARK   86  A    between atoms: _247  and  _249
REMARK   87  A    between atoms: _249  and  _250
REMARK   88  A    between atoms: _249  and  _252
REMARK   89  A    between atoms: _252  and  _253
REMARK   90  A    between atoms: _258  and  _260
REMARK   91  A    between atoms: _260  and  _261
REMARK   92  A    between atoms: _260  and  _263
REMARK   93  A    between atoms: _263  and  _264
REMARK   94  A    between atoms: _268  and  ZN_362
REMARK   95  A    between atoms: _269  and  _271
REMARK   96  A    between atoms: _271  and  _272
REMARK   97  A    between atoms: _271  and  _274
REMARK   98  A    between atoms: _274  and  _275
REMARK   99  A    between atoms: _278  and  _280
REMARK  100  A    between atoms: _280  and  _281
REMARK  101  A    between atoms: _283  and  _285
REMARK  102  A    between atoms: _285  and  _286
REMARK  103  A    between atoms: _285  and  _288
REMARK  104  A    between atoms: _288  and  _289
REMARK  105  A    between atoms: _292  and  _294
REMARK  106  A    between atoms: _294  and  _295
REMARK  107  A    between atoms: _294  and  _297
REMARK  108  A    between atoms: _297  and  _298
REMARK  109  A    between atoms: _301  and  _303
REMARK  110  A    between atoms: _303  and  _304
REMARK  111  A    between atoms: _307  and  _309
REMARK  112  A    between atoms: _309  and  _310
REMARK  113  A    between atoms: _309  and  _312
REMARK  114  A    between atoms: _312  and  _313
REMARK  115  A    between atoms: _318  and  _319
REMARK  116  A    between atoms: _321  and  _323
REMARK  117  A    between atoms: _323  and  _324
REMARK  118  A    between atoms: _323  and  _326
REMARK  119  A    between atoms: _326  and  _327
REMARK  120  A    between atoms: _327  and  _328
REMARK  121  A    between atoms: _331  and  _333
REMARK  122  A    between atoms: _333  and  _334
REMARK  123  A    between atoms: _333  and  _336
REMARK  124  A    between atoms: _336  and  _337
REMARK  125  A    between atoms: _337  and  _338
REMARK  126  A    between atoms: _338  and  _339
REMARK  127  A    between atoms: _348  and  _350
REMARK  128  A    between atoms: _350  and  _351
REMARK  129  A    between atoms: _353  and  _355
REMARK  130  A    between atoms: _355  and  _356
REMARK  131  A    between atoms: _355  and  _358
REMARK  132  A    between atoms: _358  and  _359
REMARK                            x       y       z     vdW  Elec       q    Type
REMARK                         _______ _______ _______ _____ _____    ______ ____
ROOT
ATOM      1  O   HOH     1      27.353  59.213   8.502  0.00  0.00    +0.000 OA
ENDROOT
TORSDOF 0
REMARK  Name = ../refined-set-2016/3dx4/3dx4_pocket.pdb
REMARK  132 active torsions:
REMARK  status: ('A' for Active; 'I' for Inactive)
REMARK    1  A    between atoms: _1  and  _3
REMARK    2  A    between atoms: _14  and  _17
REMARK    3  A    between atoms: _17  and  _18
REMARK    4  A    between atoms: _25  and  _26
REMARK    5  A    between atoms: _33  and  _34
REMARK    6  A    between atoms: _39  and  _41
REMARK    7  A    between atoms: _41  and  _42
REMARK    8  A    between atoms: _44  and  _46
REMARK    9  A    between atoms: _46  and  _47
REMARK   10  A    between atoms: _46  and  _49
REMARK   11  A    between atoms: _49  and  _50
REMARK   12  A    between atoms: _60  and  _62
REMARK   13  A    between atoms: _62  and  _63
REMARK   14  A    between atoms: _62  and  _65
REMARK   15  A    between atoms: _65  and  _66
REMARK   16  A    between atoms: _69  and  _71
REMARK   17  A    between atoms: _71  and  _72
REMARK   18  A    between atoms: _71  and  _74
REMARK   19  A    between atoms: _74  and  _75
REMARK   20  A    between atoms: _80  and  _81
REMARK   21  A    between atoms: _83  and  _85
REMARK   22  A    between atoms: _85  and  _86
REMARK   23  A    between atoms: _85  and  _88
REMARK   24  A    between atoms: _88  and  _89
REMARK   25  A    between atoms: _89  and  _90
REMARK   26  A    between atoms: _93  and  _95
REMARK   27  A    between atoms: _95  and  _96
REMARK   28  A    between atoms: _95  and  _98
REMARK   29  A    between atoms: _98  and  _99
REMARK   30  A    between atoms: _99  and  _100
REMARK   31  A    between atoms: _102  and  _104
REMARK   32  A    between atoms: _104  and  _105
REMARK   33  A    between atoms: _104  and  _107
REMARK   34  A    between atoms: _107  and  _108
REMARK   35  A    between atoms: _111  and  _113
REMARK   36  A    between atoms: _113  and  _114
REMARK   37  A    between atoms: _113  and  _116
REMARK   38  A    between atoms: _116  and  _117
REMARK   39  A    between atoms: _117  and  _119
REMARK   40  A    between atoms: _119  and  ZN_362
REMARK   41  A    between atoms: _121  and  _122
REMARK   42  A    between atoms: _127  and  _129
REMARK   43  A    between atoms: _129  and  _130
REMARK   44  A    between atoms: _129  and  _132
REMARK   45  A    between atoms: _132  and  _133
REMARK   46  A    between atoms: _139  and  _141
REMARK   47  A    between atoms: _141  and  _142
REMARK   48  A    between atoms: _141  and  _144
REMARK   49  A    between atoms: _144  and  _145
REMARK   50  A    between atoms: _145  and  _146
REMARK   51  A    between atoms: _146  and  _147
REMARK   52  A    between atoms: _156  and  _158
REMARK   53  A    between atoms: _158  and  _159
REMARK   54  A    between atoms: _158  and  _161
REMARK   55  A    between atoms: _161  and  _162
REMARK   56  A    between atoms: _164  and  _166
REMARK   57  A    between atoms: _166  and  _167
REMARK   58  A    between atoms: _166  and  _169
REMARK   59  A    between atoms: _169  and  _170
REMARK   60  A    between atoms: _175  and  _176
REMARK   61  A    between atoms: _178  and  _180
REMARK   62  A    between atoms: _180  and  _181
REMARK   63  A    between atoms: _180  and  _183
REMARK   64  A    between atoms: _183  and  _184
REMARK   65  A    between atoms: _187  and  _189
REMARK   66  A    between atoms: _189  and  _190
REMARK   67  A    between atoms: _189  and  _192
REMARK   68  A    between atoms: _192  and  _193
REMARK   69  A    between atoms: _196  and  _198
REMARK   70  A    between atoms: _198  and  _199
REMARK   71  A    between atoms: _198  and  _201
REMARK   72  A    between atoms: _201  and  _202
REMARK   73  A    between atoms: _208  and  _210
REMARK   74  A    between atoms: _210  and  _211
REMARK   75  A    between atoms: _210  and  _213
REMARK   76  A    between atoms: _213  and  _214
REMARK   77  A    between atoms: _219  and  _220
REMARK   78  A    between atoms: _222  and  _224
REMARK   79  A    between atoms: _224  and  _225
REMARK   80  A    between atoms: _224  and  _227
REMARK   81  A    between atoms: _227  and  _228
REMARK   82  A    between atoms: _231  and  _233
REMARK   83  A    between atoms: _233  and  _234
REMARK   84  A    between atoms: _233  and  _236
REMARK   85  A    between atoms: _236  and  _237
REMARK   86  A    between atoms: _247  and  _249
REMARK   87  A    between atoms: _249  and  _250
REMARK   88  A    between atoms: _249  and  _252
REMARK   89  A    between atoms: _252  and  _253
REMARK   90  A    between atoms: _258  and  _260
REMARK   91  A    between atoms: _260  and  _261
REMARK   92  A    between atoms: _260  and  _263
REMARK   93  A    between atoms: _263  and  _264
REMARK   94  A    between atoms: _268  and  ZN_362
REMARK   95  A    between atoms: _269  and  _271
REMARK   96  A    between atoms: _271  and  _272
REMARK   97  A    between atoms: _271  and  _274
REMARK   98  A    between atoms: _274  and  _275
REMARK   99  A    between atoms: _278  and  _280
REMARK  100  A    between atoms: _280  and  _281
REMARK  101  A    between atoms: _283  and  _285
REMARK  102  A    between atoms: _285  and  _286
REMARK  103  A    between atoms: _285  and  _288
REMARK  104  A    between atoms: _288  and  _289
REMARK  105  A    between atoms: _292  and  _294
REMARK  106  A    between atoms: _294  and  _295
REMARK  107  A    between atoms: _294  and  _297
REMARK  108  A    between atoms: _297  and  _298
REMARK  109  A    between atoms: _301  and  _303
REMARK  110  A    between atoms: _303  and  _304
REMARK  111  A    between atoms: _307  and  _309
REMARK  112  A    between atoms: _309  and  _310
REMARK  113  A    between atoms: _309  and  _312
REMARK  114  A    between atoms: _312  and  _313
REMARK  115  A    between atoms: _318  and  _319
REMARK  116  A    between atoms: _321  and  _323
REMARK  117  A    between atoms: _323  and  _324
REMARK  118  A    between atoms: _323  and  _326
REMARK  119  A    between atoms: _326  and  _327
REMARK  120  A    between atoms: _327  and  _328
REMARK  121  A    between atoms: _331  and  _333
REMARK  122  A    between atoms: _333  and  _334
REMARK  123  A    between atoms: _333  and  _336
REMARK  124  A    between atoms: _336  and  _337
REMARK  125  A    between atoms: _337  and  _338
REMARK  126  A    between atoms: _338  and  _339
REMARK  127  A    between atoms: _348  and  _350
REMARK  128  A    between atoms: _350  and  _351
REMARK  129  A    between atoms: _353  and  _355
REMARK  130  A    between atoms: _355  and  _356
REMARK  131  A    between atoms: _355  and  _358
REMARK  132  A    between atoms: _358  and  _359
REMARK                            x       y       z     vdW  Elec       q    Type
REMARK                         _______ _______ _______ _____ _____    ______ ____
ROOT
ATOM      1  O   HOH     1      27.113  61.133  10.304  0.00  0.00    +0.000 OA
ENDROOT
TORSDOF 0
REMARK  Name = ../refined-set-2016/3dx4/3dx4_pocket.pdb
REMARK  132 active torsions:
REMARK  status: ('A' for Active; 'I' for Inactive)
REMARK    1  A    between atoms: _1  and  _3
REMARK    2  A    between atoms: _14  and  _17
REMARK    3  A    between atoms: _17  and  _18
REMARK    4  A    between atoms: _25  and  _26
REMARK    5  A    between atoms: _33  and  _34
REMARK    6  A    between atoms: _39  and  _41
REMARK    7  A    between atoms: _41  and  _42
REMARK    8  A    between atoms: _44  and  _46
REMARK    9  A    between atoms: _46  and  _47
REMARK   10  A    between atoms: _46  and  _49
REMARK   11  A    between atoms: _49  and  _50
REMARK   12  A    between atoms: _60  and  _62
REMARK   13  A    between atoms: _62  and  _63
REMARK   14  A    between atoms: _62  and  _65
REMARK   15  A    between atoms: _65  and  _66
REMARK   16  A    between atoms: _69  and  _71
REMARK   17  A    between atoms: _71  and  _72
REMARK   18  A    between atoms: _71  and  _74
REMARK   19  A    between atoms: _74  and  _75
REMARK   20  A    between atoms: _80  and  _81
REMARK   21  A    between atoms: _83  and  _85
REMARK   22  A    between atoms: _85  and  _86
REMARK   23  A    between atoms: _85  and  _88
REMARK   24  A    between atoms: _88  and  _89
REMARK   25  A    between atoms: _89  and  _90
REMARK   26  A    between atoms: _93  and  _95
REMARK   27  A    between atoms: _95  and  _96
REMARK   28  A    between atoms: _95  and  _98
REMARK   29  A    between atoms: _98  and  _99
REMARK   30  A    between atoms: _99  and  _100
REMARK   31  A    between atoms: _102  and  _104
REMARK   32  A    between atoms: _104  and  _105
REMARK   33  A    between atoms: _104  and  _107
REMARK   34  A    between atoms: _107  and  _108
REMARK   35  A    between atoms: _111  and  _113
REMARK   36  A    between atoms: _113  and  _114
REMARK   37  A    between atoms: _113  and  _116
REMARK   38  A    between atoms: _116  and  _117
REMARK   39  A    between atoms: _117  and  _119
REMARK   40  A    between atoms: _119  and  ZN_362
REMARK   41  A    between atoms: _121  and  _122
REMARK   42  A    between atoms: _127  and  _129
REMARK   43  A    between atoms: _129  and  _130
REMARK   44  A    between atoms: _129  and  _132
REMARK   45  A    between atoms: _132  and  _133
REMARK   46  A    between atoms: _139  and  _141
REMARK   47  A    between atoms: _141  and  _142
REMARK   48  A    between atoms: _141  and  _144
REMARK   49  A    between atoms: _144  and  _145
REMARK   50  A    between atoms: _145  and  _146
REMARK   51  A    between atoms: _146  and  _147
REMARK   52  A    between atoms: _156  and  _158
REMARK   53  A    between atoms: _158  and  _159
REMARK   54  A    between atoms: _158  and  _161
REMARK   55  A    between atoms: _161  and  _162
REMARK   56  A    between atoms: _164  and  _166
REMARK   57  A    between atoms: _166  and  _167
REMARK   58  A    between atoms: _166  and  _169
REMARK   59  A    between atoms: _169  and  _170
REMARK   60  A    between atoms: _175  and  _176
REMARK   61  A    between atoms: _178  and  _180
REMARK   62  A    between atoms: _180  and  _181
REMARK   63  A    between atoms: _180  and  _183
REMARK   64  A    between atoms: _183  and  _184
REMARK   65  A    between atoms: _187  and  _189
REMARK   66  A    between atoms: _189  and  _190
REMARK   67  A    between atoms: _189  and  _192
REMARK   68  A    between atoms: _192  and  _193
REMARK   69  A    between atoms: _196  and  _198
REMARK   70  A    between atoms: _198  and  _199
REMARK   71  A    between atoms: _198  and  _201
REMARK   72  A    between atoms: _201  and  _202
REMARK   73  A    between atoms: _208  and  _210
REMARK   74  A    between atoms: _210  and  _211
REMARK   75  A    between atoms: _210  and  _213
REMARK   76  A    between atoms: _213  and  _214
REMARK   77  A    between atoms: _219  and  _220
REMARK   78  A    between atoms: _222  and  _224
REMARK   79  A    between atoms: _224  and  _225
REMARK   80  A    between atoms: _224  and  _227
REMARK   81  A    between atoms: _227  and  _228
REMARK   82  A    between atoms: _231  and  _233
REMARK   83  A    between atoms: _233  and  _234
REMARK   84  A    between atoms: _233  and  _236
REMARK   85  A    between atoms: _236  and  _237
REMARK   86  A    between atoms: _247  and  _249
REMARK   87  A    between atoms: _249  and  _250
REMARK   88  A    between atoms: _249  and  _252
REMARK   89  A    between atoms: _252  and  _253
REMARK   90  A    between atoms: _258  and  _260
REMARK   91  A    between atoms: _260  and  _261
REMARK   92  A    between atoms: _260  and  _263
REMARK   93  A    between atoms: _263  and  _264
REMARK   94  A    between atoms: _268  and  ZN_362
REMARK   95  A    between atoms: _269  and  _271
REMARK   96  A    between atoms: _271  and  _272
REMARK   97  A    between atoms: _271  and  _274
REMARK   98  A    between atoms: _274  and  _275
REMARK   99  A    between atoms: _278  and  _280
REMARK  100  A    between atoms: _280  and  _281
REMARK  101  A    between atoms: _283  and  _285
REMARK  102  A    between atoms: _285  and  _286
REMARK  103  A    between atoms: _285  and  _288
REMARK  104  A    between atoms: _288  and  _289
REMARK  105  A    between atoms: _292  and  _294
REMARK  106  A    between atoms: _294  and  _295
REMARK  107  A    between atoms: _294  and  _297
REMARK  108  A    between atoms: _297  and  _298
REMARK  109  A    between atoms: _301  and  _303
REMARK  110  A    between atoms: _303  and  _304
REMARK  111  A    between atoms: _307  and  _309
REMARK  112  A    between atoms: _309  and  _310
REMARK  113  A    between atoms: _309  and  _312
REMARK  114  A    between atoms: _312  and  _313
REMARK  115  A    between atoms: _318  and  _319
REMARK  116  A    between atoms: _321  and  _323
REMARK  117  A    between atoms: _323  and  _324
REMARK  118  A    between atoms: _323  and  _326
REMARK  119  A    between atoms: _326  and  _327
REMARK  120  A    between atoms: _327  and  _328
REMARK  121  A    between atoms: _331  and  _333
REMARK  122  A    between atoms: _333  and  _334
REMARK  123  A    between atoms: _333  and  _336
REMARK  124  A    between atoms: _336  and  _337
REMARK  125  A    between atoms: _337  and  _338
REMARK  126  A    between atoms: _338  and  _339
REMARK  127  A    between atoms: _348  and  _350
REMARK  128  A    between atoms: _350  and  _351
REMARK  129  A    between atoms: _353  and  _355
REMARK  130  A    between atoms: _355  and  _356
REMARK  131  A    between atoms: _355  and  _358
REMARK  132  A    between atoms: _358  and  _359
REMARK                            x       y       z     vdW  Elec       q    Type
REMARK                         _______ _______ _______ _____ _____    ______ ____
ROOT
ATOM      1  O   HOH     1      28.563  63.657  10.628  0.00  0.00    +0.000 OA
ENDROOT
TORSDOF 0
REMARK  Name = ../refined-set-2016/3dx4/3dx4_pocket.pdb
REMARK  132 active torsions:
REMARK  status: ('A' for Active; 'I' for Inactive)
REMARK    1  A    between atoms: _1  and  _3
REMARK    2  A    between atoms: _14  and  _17
REMARK    3  A    between atoms: _17  and  _18
REMARK    4  A    between atoms: _25  and  _26
REMARK    5  A    between atoms: _33  and  _34
REMARK    6  A    between atoms: _39  and  _41
REMARK    7  A    between atoms: _41  and  _42
REMARK    8  A    between atoms: _44  and  _46
REMARK    9  A    between atoms: _46  and  _47
REMARK   10  A    between atoms: _46  and  _49
REMARK   11  A    between atoms: _49  and  _50
REMARK   12  A    between atoms: _60  and  _62
REMARK   13  A    between atoms: _62  and  _63
REMARK   14  A    between atoms: _62  and  _65
REMARK   15  A    between atoms: _65  and  _66
REMARK   16  A    between atoms: _69  and  _71
REMARK   17  A    between atoms: _71  and  _72
REMARK   18  A    between atoms: _71  and  _74
REMARK   19  A    between atoms: _74  and  _75
REMARK   20  A    between atoms: _80  and  _81
REMARK   21  A    between atoms: _83  and  _85
REMARK   22  A    between atoms: _85  and  _86
REMARK   23  A    between atoms: _85  and  _88
REMARK   24  A    between atoms: _88  and  _89
REMARK   25  A    between atoms: _89  and  _90
REMARK   26  A    between atoms: _93  and  _95
REMARK   27  A    between atoms: _95  and  _96
REMARK   28  A    between atoms: _95  and  _98
REMARK   29  A    between atoms: _98  and  _99
REMARK   30  A    between atoms: _99  and  _100
REMARK   31  A    between atoms: _102  and  _104
REMARK   32  A    between atoms: _104  and  _105
REMARK   33  A    between atoms: _104  and  _107
REMARK   34  A    between atoms: _107  and  _108
REMARK   35  A    between atoms: _111  and  _113
REMARK   36  A    between atoms: _113  and  _114
REMARK   37  A    between atoms: _113  and  _116
REMARK   38  A    between atoms: _116  and  _117
REMARK   39  A    between atoms: _117  and  _119
REMARK   40  A    between atoms: _119  and  ZN_362
REMARK   41  A    between atoms: _121  and  _122
REMARK   42  A    between atoms: _127  and  _129
REMARK   43  A    between atoms: _129  and  _130
REMARK   44  A    between atoms: _129  and  _132
REMARK   45  A    between atoms: _132  and  _133
REMARK   46  A    between atoms: _139  and  _141
REMARK   47  A    between atoms: _141  and  _142
REMARK   48  A    between atoms: _141  and  _144
REMARK   49  A    between atoms: _144  and  _145
REMARK   50  A    between atoms: _145  and  _146
REMARK   51  A    between atoms: _146  and  _147
REMARK   52  A    between atoms: _156  and  _158
REMARK   53  A    between atoms: _158  and  _159
REMARK   54  A    between atoms: _158  and  _161
REMARK   55  A    between atoms: _161  and  _162
REMARK   56  A    between atoms: _164  and  _166
REMARK   57  A    between atoms: _166  and  _167
REMARK   58  A    between atoms: _166  and  _169
REMARK   59  A    between atoms: _169  and  _170
REMARK   60  A    between atoms: _175  and  _176
REMARK   61  A    between atoms: _178  and  _180
REMARK   62  A    between atoms: _180  and  _181
REMARK   63  A    between atoms: _180  and  _183
REMARK   64  A    between atoms: _183  and  _184
REMARK   65  A    between atoms: _187  and  _189
REMARK   66  A    between atoms: _189  and  _190
REMARK   67  A    between atoms: _189  and  _192
REMARK   68  A    between atoms: _192  and  _193
REMARK   69  A    between atoms: _196  and  _198
REMARK   70  A    between atoms: _198  and  _199
REMARK   71  A    between atoms: _198  and  _201
REMARK   72  A    between atoms: _201  and  _202
REMARK   73  A    between atoms: _208  and  _210
REMARK   74  A    between atoms: _210  and  _211
REMARK   75  A    between atoms: _210  and  _213
REMARK   76  A    between atoms: _213  and  _214
REMARK   77  A    between atoms: _219  and  _220
REMARK   78  A    between atoms: _222  and  _224
REMARK   79  A    between atoms: _224  and  _225
REMARK   80  A    between atoms: _224  and  _227
REMARK   81  A    between atoms: _227  and  _228
REMARK   82  A    between atoms: _231  and  _233
REMARK   83  A    between atoms: _233  and  _234
REMARK   84  A    between atoms: _233  and  _236
REMARK   85  A    between atoms: _236  and  _237
REMARK   86  A    between atoms: _247  and  _249
REMARK   87  A    between atoms: _249  and  _250
REMARK   88  A    between atoms: _249  and  _252
REMARK   89  A    between atoms: _252  and  _253
REMARK   90  A    between atoms: _258  and  _260
REMARK   91  A    between atoms: _260  and  _261
REMARK   92  A    between atoms: _260  and  _263
REMARK   93  A    between atoms: _263  and  _264
REMARK   94  A    between atoms: _268  and  ZN_362
REMARK   95  A    between atoms: _269  and  _271
REMARK   96  A    between atoms: _271  and  _272
REMARK   97  A    between atoms: _271  and  _274
REMARK   98  A    between atoms: _274  and  _275
REMARK   99  A    between atoms: _278  and  _280
REMARK  100  A    between atoms: _280  and  _281
REMARK  101  A    between atoms: _283  and  _285
REMARK  102  A    between atoms: _285  and  _286
REMARK  103  A    between atoms: _285  and  _288
REMARK  104  A    between atoms: _288  and  _289
REMARK  105  A    between atoms: _292  and  _294
REMARK  106  A    between atoms: _294  and  _295
REMARK  107  A    between atoms: _294  and  _297
REMARK  108  A    between atoms: _297  and  _298
REMARK  109  A    between atoms: _301  and  _303
REMARK  110  A    between atoms: _303  and  _304
REMARK  111  A    between atoms: _307  and  _309
REMARK  112  A    between atoms: _309  and  _310
REMARK  113  A    between atoms: _309  and  _312
REMARK  114  A    between atoms: _312  and  _313
REMARK  115  A    between atoms: _318  and  _319
REMARK  116  A    between atoms: _321  and  _323
REMARK  117  A    between atoms: _323  and  _324
REMARK  118  A    between atoms: _323  and  _326
REMARK  119  A    between atoms: _326  and  _327
REMARK  120  A    between atoms: _327  and  _328
REMARK  121  A    between atoms: _331  and  _333
REMARK  122  A    between atoms: _333  and  _334
REMARK  123  A    between atoms: _333  and  _336
REMARK  124  A    between atoms: _336  and  _337
REMARK  125  A    between atoms: _337  and  _338
REMARK  126  A    between atoms: _338  and  _339
REMARK  127  A    between atoms: _348  and  _350
REMARK  128  A    between atoms: _350  and  _351
REMARK  129  A    between atoms: _353  and  _355
REMARK  130  A    between atoms: _355  and  _356
REMARK  131  A    between atoms: _355  and  _358
REMARK  132  A    between atoms: _358  and  _359
REMARK                            x       y       z     vdW  Elec       q    Type
REMARK                         _______ _______ _______ _____ _____    ______ ____
ROOT
ATOM      1  O   HOH     1      28.687  63.020  13.325  0.00  0.00    +0.000 OA
ENDROOT
TORSDOF 0
REMARK  Name = ../refined-set-2016/3dx4/3dx4_pocket.pdb
REMARK  132 active torsions:
REMARK  status: ('A' for Active; 'I' for Inactive)
REMARK    1  A    between atoms: _1  and  _3
REMARK    2  A    between atoms: _14  and  _17
REMARK    3  A    between atoms: _17  and  _18
REMARK    4  A    between atoms: _25  and  _26
REMARK    5  A    between atoms: _33  and  _34
REMARK    6  A    between atoms: _39  and  _41
REMARK    7  A    between atoms: _41  and  _42
REMARK    8  A    between atoms: _44  and  _46
REMARK    9  A    between atoms: _46  and  _47
REMARK   10  A    between atoms: _46  and  _49
REMARK   11  A    between atoms: _49  and  _50
REMARK   12  A    between atoms: _60  and  _62
REMARK   13  A    between atoms: _62  and  _63
REMARK   14  A    between atoms: _62  and  _65
REMARK   15  A    between atoms: _65  and  _66
REMARK   16  A    between atoms: _69  and  _71
REMARK   17  A    between atoms: _71  and  _72
REMARK   18  A    between atoms: _71  and  _74
REMARK   19  A    between atoms: _74  and  _75
REMARK   20  A    between atoms: _80  and  _81
REMARK   21  A    between atoms: _83  and  _85
REMARK   22  A    between atoms: _85  and  _86
REMARK   23  A    between atoms: _85  and  _88
REMARK   24  A    between atoms: _88  and  _89
REMARK   25  A    between atoms: _89  and  _90
REMARK   26  A    between atoms: _93  and  _95
REMARK   27  A    between atoms: _95  and  _96
REMARK   28  A    between atoms: _95  and  _98
REMARK   29  A    between atoms: _98  and  _99
REMARK   30  A    between atoms: _99  and  _100
REMARK   31  A    between atoms: _102  and  _104
REMARK   32  A    between atoms: _104  and  _105
REMARK   33  A    between atoms: _104  and  _107
REMARK   34  A    between atoms: _107  and  _108
REMARK   35  A    between atoms: _111  and  _113
REMARK   36  A    between atoms: _113  and  _114
REMARK   37  A    between atoms: _113  and  _116
REMARK   38  A    between atoms: _116  and  _117
REMARK   39  A    between atoms: _117  and  _119
REMARK   40  A    between atoms: _119  and  ZN_362
REMARK   41  A    between atoms: _121  and  _122
REMARK   42  A    between atoms: _127  and  _129
REMARK   43  A    between atoms: _129  and  _130
REMARK   44  A    between atoms: _129  and  _132
REMARK   45  A    between atoms: _132  and  _133
REMARK   46  A    between atoms: _139  and  _141
REMARK   47  A    between atoms: _141  and  _142
REMARK   48  A    between atoms: _141  and  _144
REMARK   49  A    between atoms: _144  and  _145
REMARK   50  A    between atoms: _145  and  _146
REMARK   51  A    between atoms: _146  and  _147
REMARK   52  A    between atoms: _156  and  _158
REMARK   53  A    between atoms: _158  and  _159
REMARK   54  A    between atoms: _158  and  _161
REMARK   55  A    between atoms: _161  and  _162
REMARK   56  A    between atoms: _164  and  _166
REMARK   57  A    between atoms: _166  and  _167
REMARK   58  A    between atoms: _166  and  _169
REMARK   59  A    between atoms: _169  and  _170
REMARK   60  A    between atoms: _175  and  _176
REMARK   61  A    between atoms: _178  and  _180
REMARK   62  A    between atoms: _180  and  _181
REMARK   63  A    between atoms: _180  and  _183
REMARK   64  A    between atoms: _183  and  _184
REMARK   65  A    between atoms: _187  and  _189
REMARK   66  A    between atoms: _189  and  _190
REMARK   67  A    between atoms: _189  and  _192
REMARK   68  A    between atoms: _192  and  _193
REMARK   69  A    between atoms: _196  and  _198
REMARK   70  A    between atoms: _198  and  _199
REMARK   71  A    between atoms: _198  and  _201
REMARK   72  A    between atoms: _201  and  _202
REMARK   73  A    between atoms: _208  and  _210
REMARK   74  A    between atoms: _210  and  _211
REMARK   75  A    between atoms: _210  and  _213
REMARK   76  A    between atoms: _213  and  _214
REMARK   77  A    between atoms: _219  and  _220
REMARK   78  A    between atoms: _222  and  _224
REMARK   79  A    between atoms: _224  and  _225
REMARK   80  A    between atoms: _224  and  _227
REMARK   81  A    between atoms: _227  and  _228
REMARK   82  A    between atoms: _231  and  _233
REMARK   83  A    between atoms: _233  and  _234
REMARK   84  A    between atoms: _233  and  _236
REMARK   85  A    between atoms: _236  and  _237
REMARK   86  A    between atoms: _247  and  _249
REMARK   87  A    between atoms: _249  and  _250
REMARK   88  A    between atoms: _249  and  _252
REMARK   89  A    between atoms: _252  and  _253
REMARK   90  A    between atoms: _258  and  _260
REMARK   91  A    between atoms: _260  and  _261
REMARK   92  A    between atoms: _260  and  _263
REMARK   93  A    between atoms: _263  and  _264
REMARK   94  A    between atoms: _268  and  ZN_362
REMARK   95  A    between atoms: _269  and  _271
REMARK   96  A    between atoms: _271  and  _272
REMARK   97  A    between atoms: _271  and  _274
REMARK   98  A    between atoms: _274  and  _275
REMARK   99  A    between atoms: _278  and  _280
REMARK  100  A    between atoms: _280  and  _281
REMARK  101  A    between atoms: _283  and  _285
REMARK  102  A    between atoms: _285  and  _286
REMARK  103  A    between atoms: _285  and  _288
REMARK  104  A    between atoms: _288  and  _289
REMARK  105  A    between atoms: _292  and  _294
REMARK  106  A    between atoms: _294  and  _295
REMARK  107  A    between atoms: _294  and  _297
REMARK  108  A    between atoms: _297  and  _298
REMARK  109  A    between atoms: _301  and  _303
REMARK  110  A    between atoms: _303  and  _304
REMARK  111  A    between atoms: _307  and  _309
REMARK  112  A    between atoms: _309  and  _310
REMARK  113  A    between atoms: _309  and  _312
REMARK  114  A    between atoms: _312  and  _313
REMARK  115  A    between atoms: _318  and  _319
REMARK  116  A    between atoms: _321  and  _323
REMARK  117  A    between atoms: _323  and  _324
REMARK  118  A    between atoms: _323  and  _326
REMARK  119  A    between atoms: _326  and  _327
REMARK  120  A    between atoms: _327  and  _328
REMARK  121  A    between atoms: _331  and  _333
REMARK  122  A    between atoms: _333  and  _334
REMARK  123  A    between atoms: _333  and  _336
REMARK  124  A    between atoms: _336  and  _337
REMARK  125  A    between atoms: _337  and  _338
REMARK  126  A    between atoms: _338  and  _339
REMARK  127  A    between atoms: _348  and  _350
REMARK  128  A    between atoms: _350  and  _351
REMARK  129  A    between atoms: _353  and  _355
REMARK  130  A    between atoms: _355  and  _356
REMARK  131  A    between atoms: _355  and  _358
REMARK  132  A    between atoms: _358  and  _359
REMARK                            x       y       z     vdW  Elec       q    Type
REMARK                         _______ _______ _______ _____ _____    ______ ____
ROOT
ATOM      1  O   HOH     1      37.757  58.968  11.014  0.00  0.00    +0.000 OA
ENDROOT
TORSDOF 0
REMARK  Name = ../refined-set-2016/3dx4/3dx4_pocket.pdb
REMARK  132 active torsions:
REMARK  status: ('A' for Active; 'I' for Inactive)
REMARK    1  A    between atoms: _1  and  _3
REMARK    2  A    between atoms: _14  and  _17
REMARK    3  A    between atoms: _17  and  _18
REMARK    4  A    between atoms: _25  and  _26
REMARK    5  A    between atoms: _33  and  _34
REMARK    6  A    between atoms: _39  and  _41
REMARK    7  A    between atoms: _41  and  _42
REMARK    8  A    between atoms: _44  and  _46
REMARK    9  A    between atoms: _46  and  _47
REMARK   10  A    between atoms: _46  and  _49
REMARK   11  A    between atoms: _49  and  _50
REMARK   12  A    between atoms: _60  and  _62
REMARK   13  A    between atoms: _62  and  _63
REMARK   14  A    between atoms: _62  and  _65
REMARK   15  A    between atoms: _65  and  _66
REMARK   16  A    between atoms: _69  and  _71
REMARK   17  A    between atoms: _71  and  _72
REMARK   18  A    between atoms: _71  and  _74
REMARK   19  A    between atoms: _74  and  _75
REMARK   20  A    between atoms: _80  and  _81
REMARK   21  A    between atoms: _83  and  _85
REMARK   22  A    between atoms: _85  and  _86
REMARK   23  A    between atoms: _85  and  _88
REMARK   24  A    between atoms: _88  and  _89
REMARK   25  A    between atoms: _89  and  _90
REMARK   26  A    between atoms: _93  and  _95
REMARK   27  A    between atoms: _95  and  _96
REMARK   28  A    between atoms: _95  and  _98
REMARK   29  A    between atoms: _98  and  _99
REMARK   30  A    between atoms: _99  and  _100
REMARK   31  A    between atoms: _102  and  _104
REMARK   32  A    between atoms: _104  and  _105
REMARK   33  A    between atoms: _104  and  _107
REMARK   34  A    between atoms: _107  and  _108
REMARK   35  A    between atoms: _111  and  _113
REMARK   36  A    between atoms: _113  and  _114
REMARK   37  A    between atoms: _113  and  _116
REMARK   38  A    between atoms: _116  and  _117
REMARK   39  A    between atoms: _117  and  _119
REMARK   40  A    between atoms: _119  and  ZN_362
REMARK   41  A    between atoms: _121  and  _122
REMARK   42  A    between atoms: _127  and  _129
REMARK   43  A    between atoms: _129  and  _130
REMARK   44  A    between atoms: _129  and  _132
REMARK   45  A    between atoms: _132  and  _133
REMARK   46  A    between atoms: _139  and  _141
REMARK   47  A    between atoms: _141  and  _142
REMARK   48  A    between atoms: _141  and  _144
REMARK   49  A    between atoms: _144  and  _145
REMARK   50  A    between atoms: _145  and  _146
REMARK   51  A    between atoms: _146  and  _147
REMARK   52  A    between atoms: _156  and  _158
REMARK   53  A    between atoms: _158  and  _159
REMARK   54  A    between atoms: _158  and  _161
REMARK   55  A    between atoms: _161  and  _162
REMARK   56  A    between atoms: _164  and  _166
REMARK   57  A    between atoms: _166  and  _167
REMARK   58  A    between atoms: _166  and  _169
REMARK   59  A    between atoms: _169  and  _170
REMARK   60  A    between atoms: _175  and  _176
REMARK   61  A    between atoms: _178  and  _180
REMARK   62  A    between atoms: _180  and  _181
REMARK   63  A    between atoms: _180  and  _183
REMARK   64  A    between atoms: _183  and  _184
REMARK   65  A    between atoms: _187  and  _189
REMARK   66  A    between atoms: _189  and  _190
REMARK   67  A    between atoms: _189  and  _192
REMARK   68  A    between atoms: _192  and  _193
REMARK   69  A    between atoms: _196  and  _198
REMARK   70  A    between atoms: _198  and  _199
REMARK   71  A    between atoms: _198  and  _201
REMARK   72  A    between atoms: _201  and  _202
REMARK   73  A    between atoms: _208  and  _210
REMARK   74  A    between atoms: _210  and  _211
REMARK   75  A    between atoms: _210  and  _213
REMARK   76  A    between atoms: _213  and  _214
REMARK   77  A    between atoms: _219  and  _220
REMARK   78  A    between atoms: _222  and  _224
REMARK   79  A    between atoms: _224  and  _225
REMARK   80  A    between atoms: _224  and  _227
REMARK   81  A    between atoms: _227  and  _228
REMARK   82  A    between atoms: _231  and  _233
REMARK   83  A    between atoms: _233  and  _234
REMARK   84  A    between atoms: _233  and  _236
REMARK   85  A    between atoms: _236  and  _237
REMARK   86  A    between atoms: _247  and  _249
REMARK   87  A    between atoms: _249  and  _250
REMARK   88  A    between atoms: _249  and  _252
REMARK   89  A    between atoms: _252  and  _253
REMARK   90  A    between atoms: _258  and  _260
REMARK   91  A    between atoms: _260  and  _261
REMARK   92  A    between atoms: _260  and  _263
REMARK   93  A    between atoms: _263  and  _264
REMARK   94  A    between atoms: _268  and  ZN_362
REMARK   95  A    between atoms: _269  and  _271
REMARK   96  A    between atoms: _271  and  _272
REMARK   97  A    between atoms: _271  and  _274
REMARK   98  A    between atoms: _274  and  _275
REMARK   99  A    between atoms: _278  and  _280
REMARK  100  A    between atoms: _280  and  _281
REMARK  101  A    between atoms: _283  and  _285
REMARK  102  A    between atoms: _285  and  _286
REMARK  103  A    between atoms: _285  and  _288
REMARK  104  A    between atoms: _288  and  _289
REMARK  105  A    between atoms: _292  and  _294
REMARK  106  A    between atoms: _294  and  _295
REMARK  107  A    between atoms: _294  and  _297
REMARK  108  A    between atoms: _297  and  _298
REMARK  109  A    between atoms: _301  and  _303
REMARK  110  A    between atoms: _303  and  _304
REMARK  111  A    between atoms: _307  and  _309
REMARK  112  A    between atoms: _309  and  _310
REMARK  113  A    between atoms: _309  and  _312
REMARK  114  A    between atoms: _312  and  _313
REMARK  115  A    between atoms: _318  and  _319
REMARK  116  A    between atoms: _321  and  _323
REMARK  117  A    between atoms: _323  and  _324
REMARK  118  A    between atoms: _323  and  _326
REMARK  119  A    between atoms: _326  and  _327
REMARK  120  A    between atoms: _327  and  _328
REMARK  121  A    between atoms: _331  and  _333
REMARK  122  A    between atoms: _333  and  _334
REMARK  123  A    between atoms: _333  and  _336
REMARK  124  A    between atoms: _336  and  _337
REMARK  125  A    between atoms: _337  and  _338
REMARK  126  A    between atoms: _338  and  _339
REMARK  127  A    between atoms: _348  and  _350
REMARK  128  A    between atoms: _350  and  _351
REMARK  129  A    between atoms: _353  and  _355
REMARK  130  A    between atoms: _355  and  _356
REMARK  131  A    between atoms: _355  and  _358
REMARK  132  A    between atoms: _358  and  _359
REMARK                            x       y       z     vdW  Elec       q    Type
REMARK                         _______ _______ _______ _____ _____    ______ ____
ROOT
ATOM      1  O   HOH     1      38.747  62.318   8.383  0.00  0.00    +0.000 OA
ENDROOT
TORSDOF 0
REMARK  Name = ../refined-set-2016/3dx4/3dx4_pocket.pdb
REMARK  132 active torsions:
REMARK  status: ('A' for Active; 'I' for Inactive)
REMARK    1  A    between atoms: _1  and  _3
REMARK    2  A    between atoms: _14  and  _17
REMARK    3  A    between atoms: _17  and  _18
REMARK    4  A    between atoms: _25  and  _26
REMARK    5  A    between atoms: _33  and  _34
REMARK    6  A    between atoms: _39  and  _41
REMARK    7  A    between atoms: _41  and  _42
REMARK    8  A    between atoms: _44  and  _46
REMARK    9  A    between atoms: _46  and  _47
REMARK   10  A    between atoms: _46  and  _49
REMARK   11  A    between atoms: _49  and  _50
REMARK   12  A    between atoms: _60  and  _62
REMARK   13  A    between atoms: _62  and  _63
REMARK   14  A    between atoms: _62  and  _65
REMARK   15  A    between atoms: _65  and  _66
REMARK   16  A    between atoms: _69  and  _71
REMARK   17  A    between atoms: _71  and  _72
REMARK   18  A    between atoms: _71  and  _74
REMARK   19  A    between atoms: _74  and  _75
REMARK   20  A    between atoms: _80  and  _81
REMARK   21  A    between atoms: _83  and  _85
REMARK   22  A    between atoms: _85  and  _86
REMARK   23  A    between atoms: _85  and  _88
REMARK   24  A    between atoms: _88  and  _89
REMARK   25  A    between atoms: _89  and  _90
REMARK   26  A    between atoms: _93  and  _95
REMARK   27  A    between atoms: _95  and  _96
REMARK   28  A    between atoms: _95  and  _98
REMARK   29  A    between atoms: _98  and  _99
REMARK   30  A    between atoms: _99  and  _100
REMARK   31  A    between atoms: _102  and  _104
REMARK   32  A    between atoms: _104  and  _105
REMARK   33  A    between atoms: _104  and  _107
REMARK   34  A    between atoms: _107  and  _108
REMARK   35  A    between atoms: _111  and  _113
REMARK   36  A    between atoms: _113  and  _114
REMARK   37  A    between atoms: _113  and  _116
REMARK   38  A    between atoms: _116  and  _117
REMARK   39  A    between atoms: _117  and  _119
REMARK   40  A    between atoms: _119  and  ZN_362
REMARK   41  A    between atoms: _121  and  _122
REMARK   42  A    between atoms: _127  and  _129
REMARK   43  A    between atoms: _129  and  _130
REMARK   44  A    between atoms: _129  and  _132
REMARK   45  A    between atoms: _132  and  _133
REMARK   46  A    between atoms: _139  and  _141
REMARK   47  A    between atoms: _141  and  _142
REMARK   48  A    between atoms: _141  and  _144
REMARK   49  A    between atoms: _144  and  _145
REMARK   50  A    between atoms: _145  and  _146
REMARK   51  A    between atoms: _146  and  _147
REMARK   52  A    between atoms: _156  and  _158
REMARK   53  A    between atoms: _158  and  _159
REMARK   54  A    between atoms: _158  and  _161
REMARK   55  A    between atoms: _161  and  _162
REMARK   56  A    between atoms: _164  and  _166
REMARK   57  A    between atoms: _166  and  _167
REMARK   58  A    between atoms: _166  and  _169
REMARK   59  A    between atoms: _169  and  _170
REMARK   60  A    between atoms: _175  and  _176
REMARK   61  A    between atoms: _178  and  _180
REMARK   62  A    between atoms: _180  and  _181
REMARK   63  A    between atoms: _180  and  _183
REMARK   64  A    between atoms: _183  and  _184
REMARK   65  A    between atoms: _187  and  _189
REMARK   66  A    between atoms: _189  and  _190
REMARK   67  A    between atoms: _189  and  _192
REMARK   68  A    between atoms: _192  and  _193
REMARK   69  A    between atoms: _196  and  _198
REMARK   70  A    between atoms: _198  and  _199
REMARK   71  A    between atoms: _198  and  _201
REMARK   72  A    between atoms: _201  and  _202
REMARK   73  A    between atoms: _208  and  _210
REMARK   74  A    between atoms: _210  and  _211
REMARK   75  A    between atoms: _210  and  _213
REMARK   76  A    between atoms: _213  and  _214
REMARK   77  A    between atoms: _219  and  _220
REMARK   78  A    between atoms: _222  and  _224
REMARK   79  A    between atoms: _224  and  _225
REMARK   80  A    between atoms: _224  and  _227
REMARK   81  A    between atoms: _227  and  _228
REMARK   82  A    between atoms: _231  and  _233
REMARK   83  A    between atoms: _233  and  _234
REMARK   84  A    between atoms: _233  and  _236
REMARK   85  A    between atoms: _236  and  _237
REMARK   86  A    between atoms: _247  and  _249
REMARK   87  A    between atoms: _249  and  _250
REMARK   88  A    between atoms: _249  and  _252
REMARK   89  A    between atoms: _252  and  _253
REMARK   90  A    between atoms: _258  and  _260
REMARK   91  A    between atoms: _260  and  _261
REMARK   92  A    between atoms: _260  and  _263
REMARK   93  A    between atoms: _263  and  _264
REMARK   94  A    between atoms: _268  and  ZN_362
REMARK   95  A    between atoms: _269  and  _271
REMARK   96  A    between atoms: _271  and  _272
REMARK   97  A    between atoms: _271  and  _274
REMARK   98  A    between atoms: _274  and  _275
REMARK   99  A    between atoms: _278  and  _280
REMARK  100  A    between atoms: _280  and  _281
REMARK  101  A    between atoms: _283  and  _285
REMARK  102  A    between atoms: _285  and  _286
REMARK  103  A    between atoms: _285  and  _288
REMARK  104  A    between atoms: _288  and  _289
REMARK  105  A    between atoms: _292  and  _294
REMARK  106  A    between atoms: _294  and  _295
REMARK  107  A    between atoms: _294  and  _297
REMARK  108  A    between atoms: _297  and  _298
REMARK  109  A    between atoms: _301  and  _303
REMARK  110  A    between atoms: _303  and  _304
REMARK  111  A    between atoms: _307  and  _309
REMARK  112  A    between atoms: _309  and  _310
REMARK  113  A    between atoms: _309  and  _312
REMARK  114  A    between atoms: _312  and  _313
REMARK  115  A    between atoms: _318  and  _319
REMARK  116  A    between atoms: _321  and  _323
REMARK  117  A    between atoms: _323  and  _324
REMARK  118  A    between atoms: _323  and  _326
REMARK  119  A    between atoms: _326  and  _327
REMARK  120  A    between atoms: _327  and  _328
REMARK  121  A    between atoms: _331  and  _333
REMARK  122  A    between atoms: _333  and  _334
REMARK  123  A    between atoms: _333  and  _336
REMARK  124  A    between atoms: _336  and  _337
REMARK  125  A    between atoms: _337  and  _338
REMARK  126  A    between atoms: _338  and  _339
REMARK  127  A    between atoms: _348  and  _350
REMARK  128  A    between atoms: _350  and  _351
REMARK  129  A    between atoms: _353  and  _355
REMARK  130  A    between atoms: _355  and  _356
REMARK  131  A    between atoms: _355  and  _358
REMARK  132  A    between atoms: _358  and  _359
REMARK                            x       y       z     vdW  Elec       q    Type
REMARK                         _______ _______ _______ _____ _____    ______ ____
ROOT
ATOM      1  O   HOH     1      40.306  62.743   6.043  0.00  0.00    +0.000 OA
ENDROOT
TORSDOF 0
REMARK  Name = ../refined-set-2016/3dx4/3dx4_pocket.pdb
REMARK  132 active torsions:
REMARK  status: ('A' for Active; 'I' for Inactive)
REMARK    1  A    between atoms: _1  and  _3
REMARK    2  A    between atoms: _14  and  _17
REMARK    3  A    between atoms: _17  and  _18
REMARK    4  A    between atoms: _25  and  _26
REMARK    5  A    between atoms: _33  and  _34
REMARK    6  A    between atoms: _39  and  _41
REMARK    7  A    between atoms: _41  and  _42
REMARK    8  A    between atoms: _44  and  _46
REMARK    9  A    between atoms: _46  and  _47
REMARK   10  A    between atoms: _46  and  _49
REMARK   11  A    between atoms: _49  and  _50
REMARK   12  A    between atoms: _60  and  _62
REMARK   13  A    between atoms: _62  and  _63
REMARK   14  A    between atoms: _62  and  _65
REMARK   15  A    between atoms: _65  and  _66
REMARK   16  A    between atoms: _69  and  _71
REMARK   17  A    between atoms: _71  and  _72
REMARK   18  A    between atoms: _71  and  _74
REMARK   19  A    between atoms: _74  and  _75
REMARK   20  A    between atoms: _80  and  _81
REMARK   21  A    between atoms: _83  and  _85
REMARK   22  A    between atoms: _85  and  _86
REMARK   23  A    between atoms: _85  and  _88
REMARK   24  A    between atoms: _88  and  _89
REMARK   25  A    between atoms: _89  and  _90
REMARK   26  A    between atoms: _93  and  _95
REMARK   27  A    between atoms: _95  and  _96
REMARK   28  A    between atoms: _95  and  _98
REMARK   29  A    between atoms: _98  and  _99
REMARK   30  A    between atoms: _99  and  _100
REMARK   31  A    between atoms: _102  and  _104
REMARK   32  A    between atoms: _104  and  _105
REMARK   33  A    between atoms: _104  and  _107
REMARK   34  A    between atoms: _107  and  _108
REMARK   35  A    between atoms: _111  and  _113
REMARK   36  A    between atoms: _113  and  _114
REMARK   37  A    between atoms: _113  and  _116
REMARK   38  A    between atoms: _116  and  _117
REMARK   39  A    between atoms: _117  and  _119
REMARK   40  A    between atoms: _119  and  ZN_362
REMARK   41  A    between atoms: _121  and  _122
REMARK   42  A    between atoms: _127  and  _129
REMARK   43  A    between atoms: _129  and  _130
REMARK   44  A    between atoms: _129  and  _132
REMARK   45  A    between atoms: _132  and  _133
REMARK   46  A    between atoms: _139  and  _141
REMARK   47  A    between atoms: _141  and  _142
REMARK   48  A    between atoms: _141  and  _144
REMARK   49  A    between atoms: _144  and  _145
REMARK   50  A    between atoms: _145  and  _146
REMARK   51  A    between atoms: _146  and  _147
REMARK   52  A    between atoms: _156  and  _158
REMARK   53  A    between atoms: _158  and  _159
REMARK   54  A    between atoms: _158  and  _161
REMARK   55  A    between atoms: _161  and  _162
REMARK   56  A    between atoms: _164  and  _166
REMARK   57  A    between atoms: _166  and  _167
REMARK   58  A    between atoms: _166  and  _169
REMARK   59  A    between atoms: _169  and  _170
REMARK   60  A    between atoms: _175  and  _176
REMARK   61  A    between atoms: _178  and  _180
REMARK   62  A    between atoms: _180  and  _181
REMARK   63  A    between atoms: _180  and  _183
REMARK   64  A    between atoms: _183  and  _184
REMARK   65  A    between atoms: _187  and  _189
REMARK   66  A    between atoms: _189  and  _190
REMARK   67  A    between atoms: _189  and  _192
REMARK   68  A    between atoms: _192  and  _193
REMARK   69  A    between atoms: _196  and  _198
REMARK   70  A    between atoms: _198  and  _199
REMARK   71  A    between atoms: _198  and  _201
REMARK   72  A    between atoms: _201  and  _202
REMARK   73  A    between atoms: _208  and  _210
REMARK   74  A    between atoms: _210  and  _211
REMARK   75  A    between atoms: _210  and  _213
REMARK   76  A    between atoms: _213  and  _214
REMARK   77  A    between atoms: _219  and  _220
REMARK   78  A    between atoms: _222  and  _224
REMARK   79  A    between atoms: _224  and  _225
REMARK   80  A    between atoms: _224  and  _227
REMARK   81  A    between atoms: _227  and  _228
REMARK   82  A    between atoms: _231  and  _233
REMARK   83  A    between atoms: _233  and  _234
REMARK   84  A    between atoms: _233  and  _236
REMARK   85  A    between atoms: _236  and  _237
REMARK   86  A    between atoms: _247  and  _249
REMARK   87  A    between atoms: _249  and  _250
REMARK   88  A    between atoms: _249  and  _252
REMARK   89  A    between atoms: _252  and  _253
REMARK   90  A    between atoms: _258  and  _260
REMARK   91  A    between atoms: _260  and  _261
REMARK   92  A    between atoms: _260  and  _263
REMARK   93  A    between atoms: _263  and  _264
REMARK   94  A    between atoms: _268  and  ZN_362
REMARK   95  A    between atoms: _269  and  _271
REMARK   96  A    between atoms: _271  and  _272
REMARK   97  A    between atoms: _271  and  _274
REMARK   98  A    between atoms: _274  and  _275
REMARK   99  A    between atoms: _278  and  _280
REMARK  100  A    between atoms: _280  and  _281
REMARK  101  A    between atoms: _283  and  _285
REMARK  102  A    between atoms: _285  and  _286
REMARK  103  A    between atoms: _285  and  _288
REMARK  104  A    between atoms: _288  and  _289
REMARK  105  A    between atoms: _292  and  _294
REMARK  106  A    between atoms: _294  and  _295
REMARK  107  A    between atoms: _294  and  _297
REMARK  108  A    between atoms: _297  and  _298
REMARK  109  A    between atoms: _301  and  _303
REMARK  110  A    between atoms: _303  and  _304
REMARK  111  A    between atoms: _307  and  _309
REMARK  112  A    between atoms: _309  and  _310
REMARK  113  A    between atoms: _309  and  _312
REMARK  114  A    between atoms: _312  and  _313
REMARK  115  A    between atoms: _318  and  _319
REMARK  116  A    between atoms: _321  and  _323
REMARK  117  A    between atoms: _323  and  _324
REMARK  118  A    between atoms: _323  and  _326
REMARK  119  A    between atoms: _326  and  _327
REMARK  120  A    between atoms: _327  and  _328
REMARK  121  A    between atoms: _331  and  _333
REMARK  122  A    between atoms: _333  and  _334
REMARK  123  A    between atoms: _333  and  _336
REMARK  124  A    between atoms: _336  and  _337
REMARK  125  A    between atoms: _337  and  _338
REMARK  126  A    between atoms: _338  and  _339
REMARK  127  A    between atoms: _348  and  _350
REMARK  128  A    between atoms: _350  and  _351
REMARK  129  A    between atoms: _353  and  _355
REMARK  130  A    between atoms: _355  and  _356
REMARK  131  A    between atoms: _355  and  _358
REMARK  132  A    between atoms: _358  and  _359
REMARK                            x       y       z     vdW  Elec       q    Type
REMARK                         _______ _______ _______ _____ _____    ______ ____
ROOT
ATOM      1  O   HOH     1      33.051  62.754   0.062  0.00  0.00    +0.000 OA
ENDROOT
TORSDOF 0
REMARK  Name = ../refined-set-2016/3dx4/3dx4_pocket.pdb
REMARK  132 active torsions:
REMARK  status: ('A' for Active; 'I' for Inactive)
REMARK    1  A    between atoms: _1  and  _3
REMARK    2  A    between atoms: _14  and  _17
REMARK    3  A    between atoms: _17  and  _18
REMARK    4  A    between atoms: _25  and  _26
REMARK    5  A    between atoms: _33  and  _34
REMARK    6  A    between atoms: _39  and  _41
REMARK    7  A    between atoms: _41  and  _42
REMARK    8  A    between atoms: _44  and  _46
REMARK    9  A    between atoms: _46  and  _47
REMARK   10  A    between atoms: _46  and  _49
REMARK   11  A    between atoms: _49  and  _50
REMARK   12  A    between atoms: _60  and  _62
REMARK   13  A    between atoms: _62  and  _63
REMARK   14  A    between atoms: _62  and  _65
REMARK   15  A    between atoms: _65  and  _66
REMARK   16  A    between atoms: _69  and  _71
REMARK   17  A    between atoms: _71  and  _72
REMARK   18  A    between atoms: _71  and  _74
REMARK   19  A    between atoms: _74  and  _75
REMARK   20  A    between atoms: _80  and  _81
REMARK   21  A    between atoms: _83  and  _85
REMARK   22  A    between atoms: _85  and  _86
REMARK   23  A    between atoms: _85  and  _88
REMARK   24  A    between atoms: _88  and  _89
REMARK   25  A    between atoms: _89  and  _90
REMARK   26  A    between atoms: _93  and  _95
REMARK   27  A    between atoms: _95  and  _96
REMARK   28  A    between atoms: _95  and  _98
REMARK   29  A    between atoms: _98  and  _99
REMARK   30  A    between atoms: _99  and  _100
REMARK   31  A    between atoms: _102  and  _104
REMARK   32  A    between atoms: _104  and  _105
REMARK   33  A    between atoms: _104  and  _107
REMARK   34  A    between atoms: _107  and  _108
REMARK   35  A    between atoms: _111  and  _113
REMARK   36  A    between atoms: _113  and  _114
REMARK   37  A    between atoms: _113  and  _116
REMARK   38  A    between atoms: _116  and  _117
REMARK   39  A    between atoms: _117  and  _119
REMARK   40  A    between atoms: _119  and  ZN_362
REMARK   41  A    between atoms: _121  and  _122
REMARK   42  A    between atoms: _127  and  _129
REMARK   43  A    between atoms: _129  and  _130
REMARK   44  A    between atoms: _129  and  _132
REMARK   45  A    between atoms: _132  and  _133
REMARK   46  A    between atoms: _139  and  _141
REMARK   47  A    between atoms: _141  and  _142
REMARK   48  A    between atoms: _141  and  _144
REMARK   49  A    between atoms: _144  and  _145
REMARK   50  A    between atoms: _145  and  _146
REMARK   51  A    between atoms: _146  and  _147
REMARK   52  A    between atoms: _156  and  _158
REMARK   53  A    between atoms: _158  and  _159
REMARK   54  A    between atoms: _158  and  _161
REMARK   55  A    between atoms: _161  and  _162
REMARK   56  A    between atoms: _164  and  _166
REMARK   57  A    between atoms: _166  and  _167
REMARK   58  A    between atoms: _166  and  _169
REMARK   59  A    between atoms: _169  and  _170
REMARK   60  A    between atoms: _175  and  _176
REMARK   61  A    between atoms: _178  and  _180
REMARK   62  A    between atoms: _180  and  _181
REMARK   63  A    between atoms: _180  and  _183
REMARK   64  A    between atoms: _183  and  _184
REMARK   65  A    between atoms: _187  and  _189
REMARK   66  A    between atoms: _189  and  _190
REMARK   67  A    between atoms: _189  and  _192
REMARK   68  A    between atoms: _192  and  _193
REMARK   69  A    between atoms: _196  and  _198
REMARK   70  A    between atoms: _198  and  _199
REMARK   71  A    between atoms: _198  and  _201
REMARK   72  A    between atoms: _201  and  _202
REMARK   73  A    between atoms: _208  and  _210
REMARK   74  A    between atoms: _210  and  _211
REMARK   75  A    between atoms: _210  and  _213
REMARK   76  A    between atoms: _213  and  _214
REMARK   77  A    between atoms: _219  and  _220
REMARK   78  A    between atoms: _222  and  _224
REMARK   79  A    between atoms: _224  and  _225
REMARK   80  A    between atoms: _224  and  _227
REMARK   81  A    between atoms: _227  and  _228
REMARK   82  A    between atoms: _231  and  _233
REMARK   83  A    between atoms: _233  and  _234
REMARK   84  A    between atoms: _233  and  _236
REMARK   85  A    between atoms: _236  and  _237
REMARK   86  A    between atoms: _247  and  _249
REMARK   87  A    between atoms: _249  and  _250
REMARK   88  A    between atoms: _249  and  _252
REMARK   89  A    between atoms: _252  and  _253
REMARK   90  A    between atoms: _258  and  _260
REMARK   91  A    between atoms: _260  and  _261
REMARK   92  A    between atoms: _260  and  _263
REMARK   93  A    between atoms: _263  and  _264
REMARK   94  A    between atoms: _268  and  ZN_362
REMARK   95  A    between atoms: _269  and  _271
REMARK   96  A    between atoms: _271  and  _272
REMARK   97  A    between atoms: _271  and  _274
REMARK   98  A    between atoms: _274  and  _275
REMARK   99  A    between atoms: _278  and  _280
REMARK  100  A    between atoms: _280  and  _281
REMARK  101  A    between atoms: _283  and  _285
REMARK  102  A    between atoms: _285  and  _286
REMARK  103  A    between atoms: _285  and  _288
REMARK  104  A    between atoms: _288  and  _289
REMARK  105  A    between atoms: _292  and  _294
REMARK  106  A    between atoms: _294  and  _295
REMARK  107  A    between atoms: _294  and  _297
REMARK  108  A    between atoms: _297  and  _298
REMARK  109  A    between atoms: _301  and  _303
REMARK  110  A    between atoms: _303  and  _304
REMARK  111  A    between atoms: _307  and  _309
REMARK  112  A    between atoms: _309  and  _310
REMARK  113  A    between atoms: _309  and  _312
REMARK  114  A    between atoms: _312  and  _313
REMARK  115  A    between atoms: _318  and  _319
REMARK  116  A    between atoms: _321  and  _323
REMARK  117  A    between atoms: _323  and  _324
REMARK  118  A    between atoms: _323  and  _326
REMARK  119  A    between atoms: _326  and  _327
REMARK  120  A    between atoms: _327  and  _328
REMARK  121  A    between atoms: _331  and  _333
REMARK  122  A    between atoms: _333  and  _334
REMARK  123  A    between atoms: _333  and  _336
REMARK  124  A    between atoms: _336  and  _337
REMARK  125  A    between atoms: _337  and  _338
REMARK  126  A    between atoms: _338  and  _339
REMARK  127  A    between atoms: _348  and  _350
REMARK  128  A    between atoms: _350  and  _351
REMARK  129  A    between atoms: _353  and  _355
REMARK  130  A    between atoms: _355  and  _356
REMARK  131  A    between atoms: _355  and  _358
REMARK  132  A    between atoms: _358  and  _359
REMARK                            x       y       z     vdW  Elec       q    Type
REMARK                         _______ _______ _______ _____ _____    ______ ____
ROOT
ATOM      1  O   HOH     1      26.043  72.698   5.688  0.00  0.00    +0.000 OA
ENDROOT
TORSDOF 0
