REMARK  Name = ../refined-set-2016/1bv7/1bv7_pocket.pdb
REMARK  238 active torsions:
REMARK  status: ('A' for Active; 'I' for Inactive)
REMARK    1  A    between atoms: _1  and  _3
REMARK    2  A    between atoms: _3  and  _4
REMARK    3  A    between atoms: _3  and  _6
REMARK    4  A    between atoms: _6  and  _7
REMARK    5  A    between atoms: _7  and  _8
REMARK    6  A    between atoms: _8  and  _9
REMARK    7  A    between atoms: _18  and  _20
REMARK    8  A    between atoms: _20  and  _21
REMARK    9  A    between atoms: _20  and  _23
REMARK   10  A    between atoms: _23  and  _24
REMARK   11  A    between atoms: _27  and  _29
REMARK   12  A    between atoms: _29  and  _30
REMARK   13  A    between atoms: _29  and  _32
REMARK   14  A    between atoms: _32  and  _33
REMARK   15  A    between atoms: _36  and  _38
REMARK   16  A    between atoms: _38  and  _39
REMARK   17  A    between atoms: _38  and  _41
REMARK   18  A    between atoms: _41  and  _42
REMARK   19  A    between atoms: _45  and  _47
REMARK   20  A    between atoms: _47  and  _48
REMARK   21  A    between atoms: _47  and  _50
REMARK   22  A    between atoms: _50  and  _51
REMARK   23  A    between atoms: _54  and  _56
REMARK   24  A    between atoms: _56  and  _57
REMARK   25  A    between atoms: _59  and  _61
REMARK   26  A    between atoms: _61  and  _62
REMARK   27  A    between atoms: _65  and  _67
REMARK   28  A    between atoms: _67  and  _68
REMARK   29  A    between atoms: _67  and  _70
REMARK   30  A    between atoms: _70  and  _71
REMARK   31  A    between atoms: _74  and  _76
REMARK   32  A    between atoms: _76  and  _77
REMARK   33  A    between atoms: _76  and  _79
REMARK   34  A    between atoms: _79  and  _80
REMARK   35  A    between atoms: _83  and  _85
REMARK   36  A    between atoms: _85  and  _86
REMARK   37  A    between atoms: _85  and  _88
REMARK   38  A    between atoms: _88  and  _89
REMARK   39  A    between atoms: _92  and  _94
REMARK   40  A    between atoms: _94  and  _95
REMARK   41  A    between atoms: _94  and  _97
REMARK   42  A    between atoms: _100  and  _102
REMARK   43  A    between atoms: _102  and  _103
REMARK   44  A    between atoms: _102  and  _105
REMARK   45  A    between atoms: _105  and  _106
REMARK   46  A    between atoms: _109  and  _111
REMARK   47  A    between atoms: _111  and  _112
REMARK   48  A    between atoms: _111  and  _114
REMARK   49  A    between atoms: _114  and  _115
REMARK   50  A    between atoms: _115  and  _116
REMARK   51  A    between atoms: _116  and  _117
REMARK   52  A    between atoms: _117  and  _118
REMARK   53  A    between atoms: _122  and  _124
REMARK   54  A    between atoms: _124  and  _125
REMARK   55  A    between atoms: _124  and  _127
REMARK   56  A    between atoms: _127  and  _128
REMARK   57  A    between atoms: _128  and  _129
REMARK   58  A    between atoms: _131  and  _133
REMARK   59  A    between atoms: _133  and  _134
REMARK   60  A    between atoms: _133  and  _136
REMARK   61  A    between atoms: _136  and  _137
REMARK   62  A    between atoms: _140  and  _142
REMARK   63  A    between atoms: _142  and  _143
REMARK   64  A    between atoms: _145  and  _147
REMARK   65  A    between atoms: _147  and  _148
REMARK   66  A    between atoms: _150  and  _152
REMARK   67  A    between atoms: _152  and  _153
REMARK   68  A    between atoms: _152  and  _155
REMARK   69  A    between atoms: _155  and  _156
REMARK   70  A    between atoms: _159  and  _161
REMARK   71  A    between atoms: _161  and  _162
REMARK   72  A    between atoms: _164  and  _166
REMARK   73  A    between atoms: _166  and  _167
REMARK   74  A    between atoms: _169  and  _171
REMARK   75  A    between atoms: _171  and  _172
REMARK   76  A    between atoms: _171  and  _174
REMARK   77  A    between atoms: _174  and  _175
REMARK   78  A    between atoms: _181  and  _183
REMARK   79  A    between atoms: _183  and  _184
REMARK   80  A    between atoms: _183  and  _186
REMARK   81  A    between atoms: _186  and  _187
REMARK   82  A    between atoms: _190  and  _192
REMARK   83  A    between atoms: _192  and  _193
REMARK   84  A    between atoms: _192  and  _195
REMARK   85  A    between atoms: _195  and  _196
REMARK   86  A    between atoms: _200  and  _201
REMARK   87  A    between atoms: _206  and  _208
REMARK   88  A    between atoms: _208  and  _209
REMARK   89  A    between atoms: _208  and  _211
REMARK   90  A    between atoms: _211  and  _212
REMARK   91  A    between atoms: _216  and  _217
REMARK   92  A    between atoms: _222  and  _224
REMARK   93  A    between atoms: _224  and  _225
REMARK   94  A    between atoms: _224  and  _227
REMARK   95  A    between atoms: _227  and  _228
REMARK   96  A    between atoms: _234  and  _236
REMARK   97  A    between atoms: _236  and  _237
REMARK   98  A    between atoms: _236  and  _239
REMARK   99  A    between atoms: _239  and  _240
REMARK  100  A    between atoms: _245  and  _247
REMARK  101  A    between atoms: _247  and  _248
REMARK  102  A    between atoms: _247  and  _250
REMARK  103  A    between atoms: _250  and  _251
REMARK  104  A    between atoms: _254  and  _256
REMARK  105  A    between atoms: _256  and  _257
REMARK  106  A    between atoms: _256  and  _259
REMARK  107  A    between atoms: _259  and  _260
REMARK  108  A    between atoms: _263  and  _265
REMARK  109  A    between atoms: _265  and  _266
REMARK  110  A    between atoms: _268  and  _270
REMARK  111  A    between atoms: _270  and  _271
REMARK  112  A    between atoms: _270  and  _273
REMARK  113  A    between atoms: _273  and  _274
REMARK  114  A    between atoms: _274  and  _275
REMARK  115  A    between atoms: _275  and  _276
REMARK  116  A    between atoms: _285  and  _287
REMARK  117  A    between atoms: _287  and  _288
REMARK  118  A    between atoms: _287  and  _290
REMARK  119  A    between atoms: _290  and  _291
REMARK  120  A    between atoms: _296  and  _298
REMARK  121  A    between atoms: _298  and  _299
REMARK  122  A    between atoms: _298  and  _301
REMARK  123  A    between atoms: _301  and  _302
REMARK  124  A    between atoms: _302  and  _303
REMARK  125  A    between atoms: _303  and  _304
REMARK  126  A    between atoms: _313  and  _315
REMARK  127  A    between atoms: _315  and  _316
REMARK  128  A    between atoms: _315  and  _318
REMARK  129  A    between atoms: _318  and  _319
REMARK  130  A    between atoms: _322  and  _324
REMARK  131  A    between atoms: _324  and  _325
REMARK  132  A    between atoms: _324  and  _327
REMARK  133  A    between atoms: _327  and  _328
REMARK  134  A    between atoms: _331  and  _333
REMARK  135  A    between atoms: _333  and  _334
REMARK  136  A    between atoms: _333  and  _336
REMARK  137  A    between atoms: _336  and  _337
REMARK  138  A    between atoms: _340  and  _342
REMARK  139  A    between atoms: _342  and  _343
REMARK  140  A    between atoms: _342  and  _345
REMARK  141  A    between atoms: _345  and  _346
REMARK  142  A    between atoms: _349  and  _351
REMARK  143  A    between atoms: _351  and  _352
REMARK  144  A    between atoms: _354  and  _356
REMARK  145  A    between atoms: _356  and  _357
REMARK  146  A    between atoms: _360  and  _362
REMARK  147  A    between atoms: _362  and  _363
REMARK  148  A    between atoms: _362  and  _365
REMARK  149  A    between atoms: _365  and  _366
REMARK  150  A    between atoms: _369  and  _371
REMARK  151  A    between atoms: _371  and  _372
REMARK  152  A    between atoms: _371  and  _374
REMARK  153  A    between atoms: _374  and  _375
REMARK  154  A    between atoms: _378  and  _380
REMARK  155  A    between atoms: _380  and  _381
REMARK  156  A    between atoms: _380  and  _383
REMARK  157  A    between atoms: _383  and  _384
REMARK  158  A    between atoms: _387  and  _389
REMARK  159  A    between atoms: _389  and  _390
REMARK  160  A    between atoms: _389  and  _392
REMARK  161  A    between atoms: _395  and  _397
REMARK  162  A    between atoms: _397  and  _398
REMARK  163  A    between atoms: _397  and  _400
REMARK  164  A    between atoms: _400  and  _401
REMARK  165  A    between atoms: _404  and  _406
REMARK  166  A    between atoms: _406  and  _407
REMARK  167  A    between atoms: _406  and  _409
REMARK  168  A    between atoms: _409  and  _410
REMARK  169  A    between atoms: _410  and  _411
REMARK  170  A    between atoms: _411  and  _412
REMARK  171  A    between atoms: _412  and  _413
REMARK  172  A    between atoms: _417  and  _419
REMARK  173  A    between atoms: _419  and  _420
REMARK  174  A    between atoms: _419  and  _422
REMARK  175  A    between atoms: _422  and  _423
REMARK  176  A    between atoms: _423  and  _424
REMARK  177  A    between atoms: _426  and  _428
REMARK  178  A    between atoms: _428  and  _429
REMARK  179  A    between atoms: _428  and  _431
REMARK  180  A    between atoms: _431  and  _432
REMARK  181  A    between atoms: _435  and  _437
REMARK  182  A    between atoms: _437  and  _438
REMARK  183  A    between atoms: _440  and  _442
REMARK  184  A    between atoms: _442  and  _443
REMARK  185  A    between atoms: _445  and  _447
REMARK  186  A    between atoms: _447  and  _448
REMARK  187  A    between atoms: _447  and  _450
REMARK  188  A    between atoms: _450  and  _451
REMARK  189  A    between atoms: _454  and  _456
REMARK  190  A    between atoms: _456  and  _457
REMARK  191  A    between atoms: _459  and  _461
REMARK  192  A    between atoms: _461  and  _462
REMARK  193  A    between atoms: _464  and  _466
REMARK  194  A    between atoms: _466  and  _467
REMARK  195  A    between atoms: _466  and  _469
REMARK  196  A    between atoms: _469  and  _470
REMARK  197  A    between atoms: _476  and  _478
REMARK  198  A    between atoms: _478  and  _479
REMARK  199  A    between atoms: _478  and  _481
REMARK  200  A    between atoms: _481  and  _482
REMARK  201  A    between atoms: _485  and  _487
REMARK  202  A    between atoms: _487  and  _488
REMARK  203  A    between atoms: _487  and  _490
REMARK  204  A    between atoms: _490  and  _491
REMARK  205  A    between atoms: _495  and  _496
REMARK  206  A    between atoms: _501  and  _503
REMARK  207  A    between atoms: _503  and  _504
REMARK  208  A    between atoms: _503  and  _506
REMARK  209  A    between atoms: _506  and  _507
REMARK  210  A    between atoms: _511  and  _512
REMARK  211  A    between atoms: _517  and  _519
REMARK  212  A    between atoms: _519  and  _520
REMARK  213  A    between atoms: _519  and  _522
REMARK  214  A    between atoms: _522  and  _523
REMARK  215  A    between atoms: _529  and  _531
REMARK  216  A    between atoms: _531  and  _532
REMARK  217  A    between atoms: _531  and  _534
REMARK  218  A    between atoms: _534  and  _535
REMARK  219  A    between atoms: _540  and  _542
REMARK  220  A    between atoms: _542  and  _543
REMARK  221  A    between atoms: _542  and  _545
REMARK  222  A    between atoms: _545  and  _546
REMARK  223  A    between atoms: _549  and  _551
REMARK  224  A    between atoms: _551  and  _552
REMARK  225  A    between atoms: _551  and  _554
REMARK  226  A    between atoms: _554  and  _555
REMARK  227  A    between atoms: _558  and  _560
REMARK  228  A    between atoms: _560  and  _561
REMARK  229  A    between atoms: _563  and  _565
REMARK  230  A    between atoms: _565  and  _566
REMARK  231  A    between atoms: _565  and  _568
REMARK  232  A    between atoms: _568  and  _569
REMARK  233  A    between atoms: _569  and  _570
REMARK  234  A    between atoms: _570  and  _571
REMARK  235  A    between atoms: _580  and  _582
REMARK  236  A    between atoms: _582  and  _583
REMARK  237  A    between atoms: _582  and  _585
REMARK  238  A    between atoms: _585  and  _586
REMARK                            x       y       z     vdW  Elec       q    Type
REMARK                         _______ _______ _______ _____ _____    ______ ____
ROOT
ATOM      1  NE  ARG A   1      -3.842  24.105  22.188  0.00  0.00    -0.265 N 
ATOM      2  CZ  ARG A   1      -2.725  23.356  22.235  0.00  0.00    +0.342 C 
ATOM      3  NH2 ARG A   1      -1.955  23.292  23.323  0.00  0.00    -0.292 N 
ATOM      4 HH21 ARG A   1      -2.211  23.833  24.174  0.00  0.00    +0.255 HD
ATOM      5 HH22 ARG A   1      -1.099  22.701  23.320  0.00  0.00    +0.255 HD
ATOM      6  NH1 ARG A   1      -2.365  22.672  21.152  0.00  0.00    -0.292 N 
ATOM      7 HH11 ARG A   1      -1.505  22.087  21.168  0.00  0.00    +0.255 HD
ATOM      8 HH12 ARG A   1      -2.944  22.722  20.289  0.00  0.00    +0.255 HD
ATOM      9  HE  ARG A   1      -4.520  23.943  21.416  0.00  0.00    +0.259 HD
ENDROOT
BRANCH   1  10
ATOM     10  CD  ARG A   1      -4.141  25.141  23.182  0.00  0.00    +0.174 C 
BRANCH  10  11
ATOM     11  CG  ARG A   1      -5.131  26.099  22.531  0.00  0.00    +0.045 C 
BRANCH  11  12
ATOM     12  CB  ARG A   1      -5.340  27.382  23.300  0.00  0.00    +0.029 C 
BRANCH  12  13
ATOM     13  CA  ARG A   1      -6.584  28.158  22.874  0.00  0.00    +0.133 C 
BRANCH  13  14
ATOM     14  N   ARG A   1      -6.440  28.646  21.496  0.00  0.00    -0.239 NA
ATOM     15  H   ARG A   1      -5.698  28.289  20.861  0.00  0.00    +0.142 HD
ENDBRANCH  13  14
BRANCH  13  16
ATOM     16  C   ARG A   1      -6.710  29.266  23.891  0.00  0.00    +0.224 C 
ATOM     17  O   ARG A   1      -5.915  30.195  23.866  0.00  0.00    -0.287 OA
ENDBRANCH  13  16
ENDBRANCH  12  13
ENDBRANCH  11  12
ENDBRANCH  10  11
ENDBRANCH   1  10
TORSDOF 6
REMARK  Name = ../refined-set-2016/1bv7/1bv7_pocket.pdb
REMARK  238 active torsions:
REMARK  status: ('A' for Active; 'I' for Inactive)
REMARK    1  A    between atoms: _1  and  _3
REMARK    2  A    between atoms: _3  and  _4
REMARK    3  A    between atoms: _3  and  _6
REMARK    4  A    between atoms: _6  and  _7
REMARK    5  A    between atoms: _7  and  _8
REMARK    6  A    between atoms: _8  and  _9
REMARK    7  A    between atoms: _18  and  _20
REMARK    8  A    between atoms: _20  and  _21
REMARK    9  A    between atoms: _20  and  _23
REMARK   10  A    between atoms: _23  and  _24
REMARK   11  A    between atoms: _27  and  _29
REMARK   12  A    between atoms: _29  and  _30
REMARK   13  A    between atoms: _29  and  _32
REMARK   14  A    between atoms: _32  and  _33
REMARK   15  A    between atoms: _36  and  _38
REMARK   16  A    between atoms: _38  and  _39
REMARK   17  A    between atoms: _38  and  _41
REMARK   18  A    between atoms: _41  and  _42
REMARK   19  A    between atoms: _45  and  _47
REMARK   20  A    between atoms: _47  and  _48
REMARK   21  A    between atoms: _47  and  _50
REMARK   22  A    between atoms: _50  and  _51
REMARK   23  A    between atoms: _54  and  _56
REMARK   24  A    between atoms: _56  and  _57
REMARK   25  A    between atoms: _59  and  _61
REMARK   26  A    between atoms: _61  and  _62
REMARK   27  A    between atoms: _65  and  _67
REMARK   28  A    between atoms: _67  and  _68
REMARK   29  A    between atoms: _67  and  _70
REMARK   30  A    between atoms: _70  and  _71
REMARK   31  A    between atoms: _74  and  _76
REMARK   32  A    between atoms: _76  and  _77
REMARK   33  A    between atoms: _76  and  _79
REMARK   34  A    between atoms: _79  and  _80
REMARK   35  A    between atoms: _83  and  _85
REMARK   36  A    between atoms: _85  and  _86
REMARK   37  A    between atoms: _85  and  _88
REMARK   38  A    between atoms: _88  and  _89
REMARK   39  A    between atoms: _92  and  _94
REMARK   40  A    between atoms: _94  and  _95
REMARK   41  A    between atoms: _94  and  _97
REMARK   42  A    between atoms: _100  and  _102
REMARK   43  A    between atoms: _102  and  _103
REMARK   44  A    between atoms: _102  and  _105
REMARK   45  A    between atoms: _105  and  _106
REMARK   46  A    between atoms: _109  and  _111
REMARK   47  A    between atoms: _111  and  _112
REMARK   48  A    between atoms: _111  and  _114
REMARK   49  A    between atoms: _114  and  _115
REMARK   50  A    between atoms: _115  and  _116
REMARK   51  A    between atoms: _116  and  _117
REMARK   52  A    between atoms: _117  and  _118
REMARK   53  A    between atoms: _122  and  _124
REMARK   54  A    between atoms: _124  and  _125
REMARK   55  A    between atoms: _124  and  _127
REMARK   56  A    between atoms: _127  and  _128
REMARK   57  A    between atoms: _128  and  _129
REMARK   58  A    between atoms: _131  and  _133
REMARK   59  A    between atoms: _133  and  _134
REMARK   60  A    between atoms: _133  and  _136
REMARK   61  A    between atoms: _136  and  _137
REMARK   62  A    between atoms: _140  and  _142
REMARK   63  A    between atoms: _142  and  _143
REMARK   64  A    between atoms: _145  and  _147
REMARK   65  A    between atoms: _147  and  _148
REMARK   66  A    between atoms: _150  and  _152
REMARK   67  A    between atoms: _152  and  _153
REMARK   68  A    between atoms: _152  and  _155
REMARK   69  A    between atoms: _155  and  _156
REMARK   70  A    between atoms: _159  and  _161
REMARK   71  A    between atoms: _161  and  _162
REMARK   72  A    between atoms: _164  and  _166
REMARK   73  A    between atoms: _166  and  _167
REMARK   74  A    between atoms: _169  and  _171
REMARK   75  A    between atoms: _171  and  _172
REMARK   76  A    between atoms: _171  and  _174
REMARK   77  A    between atoms: _174  and  _175
REMARK   78  A    between atoms: _181  and  _183
REMARK   79  A    between atoms: _183  and  _184
REMARK   80  A    between atoms: _183  and  _186
REMARK   81  A    between atoms: _186  and  _187
REMARK   82  A    between atoms: _190  and  _192
REMARK   83  A    between atoms: _192  and  _193
REMARK   84  A    between atoms: _192  and  _195
REMARK   85  A    between atoms: _195  and  _196
REMARK   86  A    between atoms: _200  and  _201
REMARK   87  A    between atoms: _206  and  _208
REMARK   88  A    between atoms: _208  and  _209
REMARK   89  A    between atoms: _208  and  _211
REMARK   90  A    between atoms: _211  and  _212
REMARK   91  A    between atoms: _216  and  _217
REMARK   92  A    between atoms: _222  and  _224
REMARK   93  A    between atoms: _224  and  _225
REMARK   94  A    between atoms: _224  and  _227
REMARK   95  A    between atoms: _227  and  _228
REMARK   96  A    between atoms: _234  and  _236
REMARK   97  A    between atoms: _236  and  _237
REMARK   98  A    between atoms: _236  and  _239
REMARK   99  A    between atoms: _239  and  _240
REMARK  100  A    between atoms: _245  and  _247
REMARK  101  A    between atoms: _247  and  _248
REMARK  102  A    between atoms: _247  and  _250
REMARK  103  A    between atoms: _250  and  _251
REMARK  104  A    between atoms: _254  and  _256
REMARK  105  A    between atoms: _256  and  _257
REMARK  106  A    between atoms: _256  and  _259
REMARK  107  A    between atoms: _259  and  _260
REMARK  108  A    between atoms: _263  and  _265
REMARK  109  A    between atoms: _265  and  _266
REMARK  110  A    between atoms: _268  and  _270
REMARK  111  A    between atoms: _270  and  _271
REMARK  112  A    between atoms: _270  and  _273
REMARK  113  A    between atoms: _273  and  _274
REMARK  114  A    between atoms: _274  and  _275
REMARK  115  A    between atoms: _275  and  _276
REMARK  116  A    between atoms: _285  and  _287
REMARK  117  A    between atoms: _287  and  _288
REMARK  118  A    between atoms: _287  and  _290
REMARK  119  A    between atoms: _290  and  _291
REMARK  120  A    between atoms: _296  and  _298
REMARK  121  A    between atoms: _298  and  _299
REMARK  122  A    between atoms: _298  and  _301
REMARK  123  A    between atoms: _301  and  _302
REMARK  124  A    between atoms: _302  and  _303
REMARK  125  A    between atoms: _303  and  _304
REMARK  126  A    between atoms: _313  and  _315
REMARK  127  A    between atoms: _315  and  _316
REMARK  128  A    between atoms: _315  and  _318
REMARK  129  A    between atoms: _318  and  _319
REMARK  130  A    between atoms: _322  and  _324
REMARK  131  A    between atoms: _324  and  _325
REMARK  132  A    between atoms: _324  and  _327
REMARK  133  A    between atoms: _327  and  _328
REMARK  134  A    between atoms: _331  and  _333
REMARK  135  A    between atoms: _333  and  _334
REMARK  136  A    between atoms: _333  and  _336
REMARK  137  A    between atoms: _336  and  _337
REMARK  138  A    between atoms: _340  and  _342
REMARK  139  A    between atoms: _342  and  _343
REMARK  140  A    between atoms: _342  and  _345
REMARK  141  A    between atoms: _345  and  _346
REMARK  142  A    between atoms: _349  and  _351
REMARK  143  A    between atoms: _351  and  _352
REMARK  144  A    between atoms: _354  and  _356
REMARK  145  A    between atoms: _356  and  _357
REMARK  146  A    between atoms: _360  and  _362
REMARK  147  A    between atoms: _362  and  _363
REMARK  148  A    between atoms: _362  and  _365
REMARK  149  A    between atoms: _365  and  _366
REMARK  150  A    between atoms: _369  and  _371
REMARK  151  A    between atoms: _371  and  _372
REMARK  152  A    between atoms: _371  and  _374
REMARK  153  A    between atoms: _374  and  _375
REMARK  154  A    between atoms: _378  and  _380
REMARK  155  A    between atoms: _380  and  _381
REMARK  156  A    between atoms: _380  and  _383
REMARK  157  A    between atoms: _383  and  _384
REMARK  158  A    between atoms: _387  and  _389
REMARK  159  A    between atoms: _389  and  _390
REMARK  160  A    between atoms: _389  and  _392
REMARK  161  A    between atoms: _395  and  _397
REMARK  162  A    between atoms: _397  and  _398
REMARK  163  A    between atoms: _397  and  _400
REMARK  164  A    between atoms: _400  and  _401
REMARK  165  A    between atoms: _404  and  _406
REMARK  166  A    between atoms: _406  and  _407
REMARK  167  A    between atoms: _406  and  _409
REMARK  168  A    between atoms: _409  and  _410
REMARK  169  A    between atoms: _410  and  _411
REMARK  170  A    between atoms: _411  and  _412
REMARK  171  A    between atoms: _412  and  _413
REMARK  172  A    between atoms: _417  and  _419
REMARK  173  A    between atoms: _419  and  _420
REMARK  174  A    between atoms: _419  and  _422
REMARK  175  A    between atoms: _422  and  _423
REMARK  176  A    between atoms: _423  and  _424
REMARK  177  A    between atoms: _426  and  _428
REMARK  178  A    between atoms: _428  and  _429
REMARK  179  A    between atoms: _428  and  _431
REMARK  180  A    between atoms: _431  and  _432
REMARK  181  A    between atoms: _435  and  _437
REMARK  182  A    between atoms: _437  and  _438
REMARK  183  A    between atoms: _440  and  _442
REMARK  184  A    between atoms: _442  and  _443
REMARK  185  A    between atoms: _445  and  _447
REMARK  186  A    between atoms: _447  and  _448
REMARK  187  A    between atoms: _447  and  _450
REMARK  188  A    between atoms: _450  and  _451
REMARK  189  A    between atoms: _454  and  _456
REMARK  190  A    between atoms: _456  and  _457
REMARK  191  A    between atoms: _459  and  _461
REMARK  192  A    between atoms: _461  and  _462
REMARK  193  A    between atoms: _464  and  _466
REMARK  194  A    between atoms: _466  and  _467
REMARK  195  A    between atoms: _466  and  _469
REMARK  196  A    between atoms: _469  and  _470
REMARK  197  A    between atoms: _476  and  _478
REMARK  198  A    between atoms: _478  and  _479
REMARK  199  A    between atoms: _478  and  _481
REMARK  200  A    between atoms: _481  and  _482
REMARK  201  A    between atoms: _485  and  _487
REMARK  202  A    between atoms: _487  and  _488
REMARK  203  A    between atoms: _487  and  _490
REMARK  204  A    between atoms: _490  and  _491
REMARK  205  A    between atoms: _495  and  _496
REMARK  206  A    between atoms: _501  and  _503
REMARK  207  A    between atoms: _503  and  _504
REMARK  208  A    between atoms: _503  and  _506
REMARK  209  A    between atoms: _506  and  _507
REMARK  210  A    between atoms: _511  and  _512
REMARK  211  A    between atoms: _517  and  _519
REMARK  212  A    between atoms: _519  and  _520
REMARK  213  A    between atoms: _519  and  _522
REMARK  214  A    between atoms: _522  and  _523
REMARK  215  A    between atoms: _529  and  _531
REMARK  216  A    between atoms: _531  and  _532
REMARK  217  A    between atoms: _531  and  _534
REMARK  218  A    between atoms: _534  and  _535
REMARK  219  A    between atoms: _540  and  _542
REMARK  220  A    between atoms: _542  and  _543
REMARK  221  A    between atoms: _542  and  _545
REMARK  222  A    between atoms: _545  and  _546
REMARK  223  A    between atoms: _549  and  _551
REMARK  224  A    between atoms: _551  and  _552
REMARK  225  A    between atoms: _551  and  _554
REMARK  226  A    between atoms: _554  and  _555
REMARK  227  A    between atoms: _558  and  _560
REMARK  228  A    between atoms: _560  and  _561
REMARK  229  A    between atoms: _563  and  _565
REMARK  230  A    between atoms: _565  and  _566
REMARK  231  A    between atoms: _565  and  _568
REMARK  232  A    between atoms: _568  and  _569
REMARK  233  A    between atoms: _569  and  _570
REMARK  234  A    between atoms: _570  and  _571
REMARK  235  A    between atoms: _580  and  _582
REMARK  236  A    between atoms: _582  and  _583
REMARK  237  A    between atoms: _582  and  _585
REMARK  238  A    between atoms: _585  and  _586
REMARK                            x       y       z     vdW  Elec       q    Type
REMARK                         _______ _______ _______ _____ _____    ______ ____
ROOT
ATOM      1  C   ALA A   6     -13.250  19.450  34.097  0.00  0.00    +0.241 C 
ATOM      2  N   ASP A   7     -13.543  18.377  34.805  0.00  0.00    -0.297 N 
ATOM      3  H   ASP A   7     -13.384  17.418  34.435  0.00  0.00    +0.150 HD
ATOM      4  O   ALA A   6     -13.497  20.574  34.503  0.00  0.00    -0.273 OA
ENDROOT
BRANCH   1   5
ATOM      5  CA  ALA A   6     -12.598  19.216  32.763  0.00  0.00    +0.149 C 
ATOM      6  CB  ALA A   6     -11.179  19.745  32.744  0.00  0.00    +0.031 C 
BRANCH   5   8
ATOM      7  C   GLY A   5     -14.200  19.232  31.073  0.00  0.00    +0.243 C 
ATOM      8  N   ALA A   6     -13.364  19.957  31.774  0.00  0.00    -0.297 N 
ATOM      9  H   ALA A   6     -13.257  20.982  31.634  0.00  0.00    +0.150 HD
ATOM     10  O   GLY A   5     -14.370  18.063  31.374  0.00  0.00    -0.273 OA
BRANCH   7  11
ATOM     11  CA  GLY A   5     -14.841  19.875  29.838  0.00  0.00    +0.176 C 
BRANCH  11  14
ATOM     12  C   THR A   4     -15.305  22.101  30.327  0.00  0.00    +0.243 C 
ATOM     13  O   THR A   4     -16.293  21.704  30.928  0.00  0.00    -0.273 OA
ATOM     14  N   GLY A   5     -14.517  21.285  29.636  0.00  0.00    -0.295 N 
ATOM     15  H   GLY A   5     -13.750  21.615  29.016  0.00  0.00    +0.150 HD
BRANCH  12  16
ATOM     16  CA  THR A   4     -14.933  23.566  30.324  0.00  0.00    +0.176 C 
BRANCH  16  19
ATOM     17  C   ASP A   3     -12.558  23.579  30.625  0.00  0.00    +0.241 C 
ATOM     18  O   ASP A   3     -12.691  22.849  31.579  0.00  0.00    -0.273 OA
ATOM     19  N   THR A   4     -13.589  23.936  29.888  0.00  0.00    -0.295 N 
ATOM     20  H   THR A   4     -13.449  24.473  29.009  0.00  0.00    +0.150 HD
BRANCH  17  21
ATOM     21  CA  ASP A   3     -11.197  24.044  30.157  0.00  0.00    +0.160 C 
BRANCH  21  23
ATOM     22  C   LEU A   2     -10.233  26.143  29.953  0.00  0.00    +0.241 C 
ATOM     23  N   ASP A   3     -10.711  25.234  30.806  0.00  0.00    -0.297 N 
ATOM     24  H   ASP A   3     -10.730  25.372  31.837  0.00  0.00    +0.150 HD
ATOM     25  O   LEU A   2     -10.516  26.176  28.753  0.00  0.00    -0.273 OA
BRANCH  22  26
ATOM     26  CA  LEU A   2      -9.322  27.194  30.523  0.00  0.00    +0.149 C 
BRANCH  26  29
ATOM     27  C   LEU A   1      -7.060  26.372  30.394  0.00  0.00    +0.238 C 
ATOM     28  O   LEU A   1      -7.204  25.776  31.454  0.00  0.00    -0.274 OA
ATOM     29  N   LEU A   2      -8.021  27.130  29.864  0.00  0.00    -0.297 N 
ATOM     30  H   LEU A   2      -7.846  27.669  28.992  0.00  0.00    +0.150 HD
BRANCH  27  31
ATOM     31  CA  LEU A   1      -5.761  26.295  29.619  0.00  0.00    +0.145 C 
BRANCH  31  32
ATOM     32  N   LEU A   1      -4.636  26.296  30.538  0.00  0.00    -0.238 NA
ATOM     33  H   LEU A   1      -4.271  25.394  30.905  0.00  0.00    +0.142 HD
ENDBRANCH  31  32
BRANCH  31  34
ATOM     34  CB  LEU A   1      -5.645  24.973  28.822  0.00  0.00    +0.026 C 
BRANCH  34  35
ATOM     35  CG  LEU A   1      -6.587  24.722  27.658  0.00  0.00    +0.002 C 
ATOM     36  CD2 LEU A   1      -6.264  23.363  27.111  0.00  0.00    +0.000 C 
ATOM     37  CD1 LEU A   1      -6.358  25.694  26.526  0.00  0.00    +0.000 C 
ENDBRANCH  34  35
ENDBRANCH  31  34
ENDBRANCH  27  31
ENDBRANCH  26  29
BRANCH  26  38
ATOM     38  CB  LEU A   2     -10.029  28.490  30.158  0.00  0.00    +0.029 C 
BRANCH  38  39
ATOM     39  CG  LEU A   2      -9.963  29.689  31.084  0.00  0.00    +0.002 C 
ATOM     40  CD2 LEU A   2      -9.035  29.459  32.258  0.00  0.00    +0.000 C 
ATOM     41  CD1 LEU A   2      -9.747  30.948  30.249  0.00  0.00    +0.000 C 
ENDBRANCH  38  39
ENDBRANCH  26  38
ENDBRANCH  22  26
ENDBRANCH  21  23
BRANCH  21  42
ATOM     42  CB  ASP A   3     -10.093  23.008  30.362  0.00  0.00    +0.143 C 
BRANCH  42  43
ATOM     43  CG  ASP A   3     -10.343  21.726  29.595  0.00  0.00    +0.367 C 
ATOM     44  OD2 ASP A   3      -9.408  20.945  29.476  0.00  0.00    -0.246 OA
ATOM     45  OD1 ASP A   3     -11.458  21.501  29.121  0.00  0.00    -0.246 OA
ENDBRANCH  42  43
ENDBRANCH  21  42
ENDBRANCH  17  21
ENDBRANCH  16  19
BRANCH  16  46
ATOM     46  CB  THR A   4     -15.981  24.324  29.502  0.00  0.00    +0.137 C 
ATOM     47  CG2 THR A   4     -15.949  25.827  29.741  0.00  0.00    +0.034 C 
BRANCH  46  48
ATOM     48  OG1 THR A   4     -15.776  24.069  28.111  0.00  0.00    -0.382 OA
ATOM     49  HG1 THR A   4     -15.862  23.098  27.939  0.00  0.00    +0.210 HD
ENDBRANCH  46  48
ENDBRANCH  16  46
ENDBRANCH  12  16
ENDBRANCH  11  14
ENDBRANCH   7  11
ENDBRANCH   5   8
ENDBRANCH   1   5
BRANCH   2  50
ATOM     50  CA  ASP A   7     -14.107  18.604  36.147  0.00  0.00    +0.160 C 
BRANCH  50  51
ATOM     51  C   ASP A   7     -13.114  19.129  37.146  0.00  0.00    +0.241 C 
ATOM     52  O   ASP A   7     -13.476  19.798  38.091  0.00  0.00    -0.273 OA
ATOM     53  N   ASP A   8     -11.862  18.788  36.922  0.00  0.00    -0.297 N 
ATOM     54  H   ASP A   8     -11.623  18.267  36.054  0.00  0.00    +0.150 HD
BRANCH  53  55
ATOM     55  CA  ASP A   8     -10.806  19.127  37.866  0.00  0.00    +0.160 C 
BRANCH  55  56
ATOM     56  C   ASP A   8      -9.655  19.835  37.224  0.00  0.00    +0.241 C 
ATOM     57  N   THR A   9      -8.984  20.608  38.045  0.00  0.00    -0.295 N 
ATOM     58  H   THR A   9      -9.306  20.698  39.030  0.00  0.00    +0.150 HD
ATOM     59  O   ASP A   8      -9.391  19.696  36.043  0.00  0.00    -0.273 OA
BRANCH  57  60
ATOM     60  CA  THR A   9      -7.812  21.338  37.621  0.00  0.00    +0.176 C 
BRANCH  60  61
ATOM     61  C   THR A   9      -6.641  20.407  37.750  0.00  0.00    +0.243 C 
ATOM     62  O   THR A   9      -6.529  19.743  38.774  0.00  0.00    -0.273 OA
ATOM     63  N   VAL A  10      -5.802  20.334  36.723  0.00  0.00    -0.297 N 
ATOM     64  H   VAL A  10      -5.943  20.955  35.900  0.00  0.00    +0.150 HD
BRANCH  63  65
ATOM     65  CA  VAL A  10      -4.679  19.389  36.734  0.00  0.00    +0.149 C 
BRANCH  65  66
ATOM     66  C   VAL A  10      -3.457  20.100  36.219  0.00  0.00    +0.241 C 
ATOM     67  N   LEU A  11      -2.397  19.954  36.959  0.00  0.00    -0.298 N 
ATOM     68  H   LEU A  11      -2.352  19.236  37.710  0.00  0.00    +0.150 HD
ATOM     69  O   VAL A  10      -3.492  20.794  35.219  0.00  0.00    -0.273 OA
BRANCH  67  70
ATOM     70  CA  LEU A  11      -1.292  20.832  36.689  0.00  0.00    +0.137 C 
BRANCH  70  71
ATOM     71  C   LEU A  11      -0.152  19.929  36.524  0.00  0.00    +0.227 C 
ATOM     72  O   LEU A  11      -0.110  18.883  37.164  0.00  0.00    -0.286 OA
ENDBRANCH  70  71
BRANCH  70  73
ATOM     73  CB  LEU A  11      -1.047  21.730  37.911  0.00  0.00    +0.028 C 
BRANCH  73  74
ATOM     74  CG  LEU A  11      -2.183  22.686  38.271  0.00  0.00    +0.002 C 
ATOM     75  CD2 LEU A  11      -1.849  23.385  39.582  0.00  0.00    +0.000 C 
ATOM     76  CD1 LEU A  11      -2.524  23.681  37.158  0.00  0.00    +0.000 C 
ENDBRANCH  73  74
ENDBRANCH  70  73
ENDBRANCH  67  70
ENDBRANCH  65  66
BRANCH  65  77
ATOM     77  CB  VAL A  10      -4.857  18.165  35.812  0.00  0.00    +0.027 C 
ATOM     78  CG2 VAL A  10      -3.748  17.161  36.069  0.00  0.00    +0.002 C 
ATOM     79  CG1 VAL A  10      -6.227  17.497  35.977  0.00  0.00    +0.002 C 
ENDBRANCH  65  77
ENDBRANCH  63  65
ENDBRANCH  60  61
BRANCH  60  80
ATOM     80  CB  THR A   9      -7.781  22.519  38.615  0.00  0.00    +0.137 C 
ATOM     81  CG2 THR A   9      -6.521  23.384  38.574  0.00  0.00    +0.034 C 
BRANCH  80  82
ATOM     82  OG1 THR A   9      -8.944  23.328  38.363  0.00  0.00    -0.382 OA
ATOM     83  HG1 THR A   9      -9.759  22.783  38.498  0.00  0.00    +0.210 HD
ENDBRANCH  80  82
ENDBRANCH  60  80
ENDBRANCH  57  60
ENDBRANCH  55  56
BRANCH  55  84
ATOM     84  CB  ASP A   8     -10.236  17.850  38.420  0.00  0.00    +0.143 C 
BRANCH  84  85
ATOM     85  CG  ASP A   8     -11.143  17.311  39.470  0.00  0.00    +0.367 C 
ATOM     86  OD2 ASP A   8     -11.940  18.071  40.024  0.00  0.00    -0.246 OA
ATOM     87  OD1 ASP A   8     -11.043  16.122  39.739  0.00  0.00    -0.246 OA
ENDBRANCH  84  85
ENDBRANCH  55  84
ENDBRANCH  53  55
ENDBRANCH  50  51
BRANCH  50  88
ATOM     88  CB  ASP A   7     -14.606  17.333  36.842  0.00  0.00    +0.143 C 
BRANCH  88  89
ATOM     89  CG  ASP A   7     -15.631  16.563  36.049  0.00  0.00    +0.367 C 
ATOM     90  OD2 ASP A   7     -15.748  15.358  36.289  0.00  0.00    -0.246 OA
ATOM     91  OD1 ASP A   7     -16.317  17.140  35.199  0.00  0.00    -0.246 OA
ENDBRANCH  88  89
ENDBRANCH  50  88
ENDBRANCH   2  50
TORSDOF 39
REMARK  Name = ../refined-set-2016/1bv7/1bv7_pocket.pdb
REMARK  238 active torsions:
REMARK  status: ('A' for Active; 'I' for Inactive)
REMARK    1  A    between atoms: _1  and  _3
REMARK    2  A    between atoms: _3  and  _4
REMARK    3  A    between atoms: _3  and  _6
REMARK    4  A    between atoms: _6  and  _7
REMARK    5  A    between atoms: _7  and  _8
REMARK    6  A    between atoms: _8  and  _9
REMARK    7  A    between atoms: _18  and  _20
REMARK    8  A    between atoms: _20  and  _21
REMARK    9  A    between atoms: _20  and  _23
REMARK   10  A    between atoms: _23  and  _24
REMARK   11  A    between atoms: _27  and  _29
REMARK   12  A    between atoms: _29  and  _30
REMARK   13  A    between atoms: _29  and  _32
REMARK   14  A    between atoms: _32  and  _33
REMARK   15  A    between atoms: _36  and  _38
REMARK   16  A    between atoms: _38  and  _39
REMARK   17  A    between atoms: _38  and  _41
REMARK   18  A    between atoms: _41  and  _42
REMARK   19  A    between atoms: _45  and  _47
REMARK   20  A    between atoms: _47  and  _48
REMARK   21  A    between atoms: _47  and  _50
REMARK   22  A    between atoms: _50  and  _51
REMARK   23  A    between atoms: _54  and  _56
REMARK   24  A    between atoms: _56  and  _57
REMARK   25  A    between atoms: _59  and  _61
REMARK   26  A    between atoms: _61  and  _62
REMARK   27  A    between atoms: _65  and  _67
REMARK   28  A    between atoms: _67  and  _68
REMARK   29  A    between atoms: _67  and  _70
REMARK   30  A    between atoms: _70  and  _71
REMARK   31  A    between atoms: _74  and  _76
REMARK   32  A    between atoms: _76  and  _77
REMARK   33  A    between atoms: _76  and  _79
REMARK   34  A    between atoms: _79  and  _80
REMARK   35  A    between atoms: _83  and  _85
REMARK   36  A    between atoms: _85  and  _86
REMARK   37  A    between atoms: _85  and  _88
REMARK   38  A    between atoms: _88  and  _89
REMARK   39  A    between atoms: _92  and  _94
REMARK   40  A    between atoms: _94  and  _95
REMARK   41  A    between atoms: _94  and  _97
REMARK   42  A    between atoms: _100  and  _102
REMARK   43  A    between atoms: _102  and  _103
REMARK   44  A    between atoms: _102  and  _105
REMARK   45  A    between atoms: _105  and  _106
REMARK   46  A    between atoms: _109  and  _111
REMARK   47  A    between atoms: _111  and  _112
REMARK   48  A    between atoms: _111  and  _114
REMARK   49  A    between atoms: _114  and  _115
REMARK   50  A    between atoms: _115  and  _116
REMARK   51  A    between atoms: _116  and  _117
REMARK   52  A    between atoms: _117  and  _118
REMARK   53  A    between atoms: _122  and  _124
REMARK   54  A    between atoms: _124  and  _125
REMARK   55  A    between atoms: _124  and  _127
REMARK   56  A    between atoms: _127  and  _128
REMARK   57  A    between atoms: _128  and  _129
REMARK   58  A    between atoms: _131  and  _133
REMARK   59  A    between atoms: _133  and  _134
REMARK   60  A    between atoms: _133  and  _136
REMARK   61  A    between atoms: _136  and  _137
REMARK   62  A    between atoms: _140  and  _142
REMARK   63  A    between atoms: _142  and  _143
REMARK   64  A    between atoms: _145  and  _147
REMARK   65  A    between atoms: _147  and  _148
REMARK   66  A    between atoms: _150  and  _152
REMARK   67  A    between atoms: _152  and  _153
REMARK   68  A    between atoms: _152  and  _155
REMARK   69  A    between atoms: _155  and  _156
REMARK   70  A    between atoms: _159  and  _161
REMARK   71  A    between atoms: _161  and  _162
REMARK   72  A    between atoms: _164  and  _166
REMARK   73  A    between atoms: _166  and  _167
REMARK   74  A    between atoms: _169  and  _171
REMARK   75  A    between atoms: _171  and  _172
REMARK   76  A    between atoms: _171  and  _174
REMARK   77  A    between atoms: _174  and  _175
REMARK   78  A    between atoms: _181  and  _183
REMARK   79  A    between atoms: _183  and  _184
REMARK   80  A    between atoms: _183  and  _186
REMARK   81  A    between atoms: _186  and  _187
REMARK   82  A    between atoms: _190  and  _192
REMARK   83  A    between atoms: _192  and  _193
REMARK   84  A    between atoms: _192  and  _195
REMARK   85  A    between atoms: _195  and  _196
REMARK   86  A    between atoms: _200  and  _201
REMARK   87  A    between atoms: _206  and  _208
REMARK   88  A    between atoms: _208  and  _209
REMARK   89  A    between atoms: _208  and  _211
REMARK   90  A    between atoms: _211  and  _212
REMARK   91  A    between atoms: _216  and  _217
REMARK   92  A    between atoms: _222  and  _224
REMARK   93  A    between atoms: _224  and  _225
REMARK   94  A    between atoms: _224  and  _227
REMARK   95  A    between atoms: _227  and  _228
REMARK   96  A    between atoms: _234  and  _236
REMARK   97  A    between atoms: _236  and  _237
REMARK   98  A    between atoms: _236  and  _239
REMARK   99  A    between atoms: _239  and  _240
REMARK  100  A    between atoms: _245  and  _247
REMARK  101  A    between atoms: _247  and  _248
REMARK  102  A    between atoms: _247  and  _250
REMARK  103  A    between atoms: _250  and  _251
REMARK  104  A    between atoms: _254  and  _256
REMARK  105  A    between atoms: _256  and  _257
REMARK  106  A    between atoms: _256  and  _259
REMARK  107  A    between atoms: _259  and  _260
REMARK  108  A    between atoms: _263  and  _265
REMARK  109  A    between atoms: _265  and  _266
REMARK  110  A    between atoms: _268  and  _270
REMARK  111  A    between atoms: _270  and  _271
REMARK  112  A    between atoms: _270  and  _273
REMARK  113  A    between atoms: _273  and  _274
REMARK  114  A    between atoms: _274  and  _275
REMARK  115  A    between atoms: _275  and  _276
REMARK  116  A    between atoms: _285  and  _287
REMARK  117  A    between atoms: _287  and  _288
REMARK  118  A    between atoms: _287  and  _290
REMARK  119  A    between atoms: _290  and  _291
REMARK  120  A    between atoms: _296  and  _298
REMARK  121  A    between atoms: _298  and  _299
REMARK  122  A    between atoms: _298  and  _301
REMARK  123  A    between atoms: _301  and  _302
REMARK  124  A    between atoms: _302  and  _303
REMARK  125  A    between atoms: _303  and  _304
REMARK  126  A    between atoms: _313  and  _315
REMARK  127  A    between atoms: _315  and  _316
REMARK  128  A    between atoms: _315  and  _318
REMARK  129  A    between atoms: _318  and  _319
REMARK  130  A    between atoms: _322  and  _324
REMARK  131  A    between atoms: _324  and  _325
REMARK  132  A    between atoms: _324  and  _327
REMARK  133  A    between atoms: _327  and  _328
REMARK  134  A    between atoms: _331  and  _333
REMARK  135  A    between atoms: _333  and  _334
REMARK  136  A    between atoms: _333  and  _336
REMARK  137  A    between atoms: _336  and  _337
REMARK  138  A    between atoms: _340  and  _342
REMARK  139  A    between atoms: _342  and  _343
REMARK  140  A    between atoms: _342  and  _345
REMARK  141  A    between atoms: _345  and  _346
REMARK  142  A    between atoms: _349  and  _351
REMARK  143  A    between atoms: _351  and  _352
REMARK  144  A    between atoms: _354  and  _356
REMARK  145  A    between atoms: _356  and  _357
REMARK  146  A    between atoms: _360  and  _362
REMARK  147  A    between atoms: _362  and  _363
REMARK  148  A    between atoms: _362  and  _365
REMARK  149  A    between atoms: _365  and  _366
REMARK  150  A    between atoms: _369  and  _371
REMARK  151  A    between atoms: _371  and  _372
REMARK  152  A    between atoms: _371  and  _374
REMARK  153  A    between atoms: _374  and  _375
REMARK  154  A    between atoms: _378  and  _380
REMARK  155  A    between atoms: _380  and  _381
REMARK  156  A    between atoms: _380  and  _383
REMARK  157  A    between atoms: _383  and  _384
REMARK  158  A    between atoms: _387  and  _389
REMARK  159  A    between atoms: _389  and  _390
REMARK  160  A    between atoms: _389  and  _392
REMARK  161  A    between atoms: _395  and  _397
REMARK  162  A    between atoms: _397  and  _398
REMARK  163  A    between atoms: _397  and  _400
REMARK  164  A    between atoms: _400  and  _401
REMARK  165  A    between atoms: _404  and  _406
REMARK  166  A    between atoms: _406  and  _407
REMARK  167  A    between atoms: _406  and  _409
REMARK  168  A    between atoms: _409  and  _410
REMARK  169  A    between atoms: _410  and  _411
REMARK  170  A    between atoms: _411  and  _412
REMARK  171  A    between atoms: _412  and  _413
REMARK  172  A    between atoms: _417  and  _419
REMARK  173  A    between atoms: _419  and  _420
REMARK  174  A    between atoms: _419  and  _422
REMARK  175  A    between atoms: _422  and  _423
REMARK  176  A    between atoms: _423  and  _424
REMARK  177  A    between atoms: _426  and  _428
REMARK  178  A    between atoms: _428  and  _429
REMARK  179  A    between atoms: _428  and  _431
REMARK  180  A    between atoms: _431  and  _432
REMARK  181  A    between atoms: _435  and  _437
REMARK  182  A    between atoms: _437  and  _438
REMARK  183  A    between atoms: _440  and  _442
REMARK  184  A    between atoms: _442  and  _443
REMARK  185  A    between atoms: _445  and  _447
REMARK  186  A    between atoms: _447  and  _448
REMARK  187  A    between atoms: _447  and  _450
REMARK  188  A    between atoms: _450  and  _451
REMARK  189  A    between atoms: _454  and  _456
REMARK  190  A    between atoms: _456  and  _457
REMARK  191  A    between atoms: _459  and  _461
REMARK  192  A    between atoms: _461  and  _462
REMARK  193  A    between atoms: _464  and  _466
REMARK  194  A    between atoms: _466  and  _467
REMARK  195  A    between atoms: _466  and  _469
REMARK  196  A    between atoms: _469  and  _470
REMARK  197  A    between atoms: _476  and  _478
REMARK  198  A    between atoms: _478  and  _479
REMARK  199  A    between atoms: _478  and  _481
REMARK  200  A    between atoms: _481  and  _482
REMARK  201  A    between atoms: _485  and  _487
REMARK  202  A    between atoms: _487  and  _488
REMARK  203  A    between atoms: _487  and  _490
REMARK  204  A    between atoms: _490  and  _491
REMARK  205  A    between atoms: _495  and  _496
REMARK  206  A    between atoms: _501  and  _503
REMARK  207  A    between atoms: _503  and  _504
REMARK  208  A    between atoms: _503  and  _506
REMARK  209  A    between atoms: _506  and  _507
REMARK  210  A    between atoms: _511  and  _512
REMARK  211  A    between atoms: _517  and  _519
REMARK  212  A    between atoms: _519  and  _520
REMARK  213  A    between atoms: _519  and  _522
REMARK  214  A    between atoms: _522  and  _523
REMARK  215  A    between atoms: _529  and  _531
REMARK  216  A    between atoms: _531  and  _532
REMARK  217  A    between atoms: _531  and  _534
REMARK  218  A    between atoms: _534  and  _535
REMARK  219  A    between atoms: _540  and  _542
REMARK  220  A    between atoms: _542  and  _543
REMARK  221  A    between atoms: _542  and  _545
REMARK  222  A    between atoms: _545  and  _546
REMARK  223  A    between atoms: _549  and  _551
REMARK  224  A    between atoms: _551  and  _552
REMARK  225  A    between atoms: _551  and  _554
REMARK  226  A    between atoms: _554  and  _555
REMARK  227  A    between atoms: _558  and  _560
REMARK  228  A    between atoms: _560  and  _561
REMARK  229  A    between atoms: _563  and  _565
REMARK  230  A    between atoms: _565  and  _566
REMARK  231  A    between atoms: _565  and  _568
REMARK  232  A    between atoms: _568  and  _569
REMARK  233  A    between atoms: _569  and  _570
REMARK  234  A    between atoms: _570  and  _571
REMARK  235  A    between atoms: _580  and  _582
REMARK  236  A    between atoms: _582  and  _583
REMARK  237  A    between atoms: _582  and  _585
REMARK  238  A    between atoms: _585  and  _586
REMARK                            x       y       z     vdW  Elec       q    Type
REMARK                         _______ _______ _______ _____ _____    ______ ____
ROOT
ATOM      1  C   GLY A   5      -9.402  10.619  28.918  0.00  0.00    +0.243 C 
ATOM      2  O   GLY A   5      -9.437   9.398  28.891  0.00  0.00    -0.273 OA
ATOM      3  N   ILE A   6      -9.337  11.340  27.813  0.00  0.00    -0.297 N 
ATOM      4  H   ILE A   6      -9.485  12.369  27.828  0.00  0.00    +0.150 HD
ENDROOT
BRANCH   3   5
ATOM      5  CA  ILE A   6      -9.048  10.630  26.570  0.00  0.00    +0.149 C 
BRANCH   5   6
ATOM      6  C   ILE A   6      -7.706  10.023  26.741  0.00  0.00    +0.241 C 
ATOM      7  O   ILE A   6      -6.854  10.676  27.323  0.00  0.00    -0.273 OA
ATOM      8  N   GLY A   7      -7.532   8.808  26.259  0.00  0.00    -0.295 N 
ATOM      9  H   GLY A   7      -8.320   8.289  25.822  0.00  0.00    +0.150 HD
BRANCH   8  10
ATOM     10  CA  GLY A   7      -6.202   8.211  26.355  0.00  0.00    +0.176 C 
BRANCH  10  11
ATOM     11  C   GLY A   7      -6.012   7.278  27.543  0.00  0.00    +0.243 C 
ATOM     12  N   GLY A   8      -6.581   7.633  28.701  0.00  0.00    -0.295 N 
ATOM     13  H   GLY A   8      -7.214   8.453  28.796  0.00  0.00    +0.150 HD
ATOM     14  O   GLY A   7      -5.354   6.256  27.434  0.00  0.00    -0.273 OA
BRANCH  12  15
ATOM     15  CA  GLY A   8      -6.229   6.761  29.818  0.00  0.00    +0.176 C 
BRANCH  15  16
ATOM     16  C   GLY A   8      -6.537   7.321  31.158  0.00  0.00    +0.243 C 
ATOM     17  N   PHE A   9      -5.942   6.742  32.161  0.00  0.00    -0.297 N 
ATOM     18  H   PHE A   9      -5.348   5.903  32.007  0.00  0.00    +0.150 HD
ATOM     19  O   GLY A   8      -7.315   8.238  31.288  0.00  0.00    -0.273 OA
BRANCH  17  20
ATOM     20  CA  PHE A   9      -6.118   7.282  33.499  0.00  0.00    +0.153 C 
BRANCH  20  21
ATOM     21  C   PHE A   9      -4.743   7.686  33.884  0.00  0.00    +0.241 C 
ATOM     22  N   ILE A  10      -4.646   8.736  34.680  0.00  0.00    -0.298 N 
ATOM     23  H   ILE A  10      -5.467   9.345  34.873  0.00  0.00    +0.150 HD
ATOM     24  O   PHE A   9      -3.798   7.036  33.470  0.00  0.00    -0.273 OA
BRANCH  22  25
ATOM     25  CA  ILE A  10      -3.344   9.009  35.277  0.00  0.00    +0.137 C 
BRANCH  25  26
ATOM     26  C   ILE A  10      -3.465   9.022  36.787  0.00  0.00    +0.227 C 
ATOM     27  O   ILE A  10      -4.509   9.337  37.346  0.00  0.00    -0.286 OA
ENDBRANCH  25  26
BRANCH  25  28
ATOM     28  CB  ILE A  10      -2.698  10.325  34.755  0.00  0.00    +0.026 C 
ATOM     29  CG2 ILE A  10      -2.336  10.221  33.264  0.00  0.00    +0.002 C 
BRANCH  28  30
ATOM     30  CG1 ILE A  10      -3.439  11.635  35.018  0.00  0.00    +0.002 C 
ATOM     31  CD1 ILE A  10      -2.598  12.849  34.625  0.00  0.00    +0.000 C 
ENDBRANCH  28  30
ENDBRANCH  25  28
ENDBRANCH  22  25
ENDBRANCH  20  21
BRANCH  20  32
ATOM     32  CB  PHE A   9      -6.528   6.197  34.516  0.00  0.00    +0.055 C 
BRANCH  32  33
ATOM     33  CG  PHE A   9      -8.029   5.952  34.551  0.00  0.00    -0.020 A 
ATOM     34  CD2 PHE A   9      -8.757   6.288  35.718  0.00  0.00    -0.004 A 
ATOM     35  CE2 PHE A   9     -10.166   6.140  35.735  0.00  0.00    -0.000 A 
ATOM     36  CZ  PHE A   9     -10.842   5.645  34.594  0.00  0.00    -0.000 A 
ATOM     37  CE1 PHE A   9     -10.117   5.287  33.432  0.00  0.00    -0.000 A 
ATOM     38  CD1 PHE A   9      -8.711   5.441  33.417  0.00  0.00    -0.004 A 
ENDBRANCH  32  33
ENDBRANCH  20  32
ENDBRANCH  17  20
ENDBRANCH  15  16
ENDBRANCH  12  15
ENDBRANCH  10  11
ENDBRANCH   8  10
ENDBRANCH   5   6
BRANCH   5  39
ATOM     39  CB  ILE A   6      -8.933  11.653  25.453  0.00  0.00    +0.027 C 
ATOM     40  CG2 ILE A   6      -8.325  11.105  24.156  0.00  0.00    +0.002 C 
BRANCH  39  41
ATOM     41  CG1 ILE A   6     -10.287  12.301  25.156  0.00  0.00    +0.002 C 
ATOM     42  CD1 ILE A   6     -11.369  11.392  24.607  0.00  0.00    +0.000 C 
ENDBRANCH  39  41
ENDBRANCH   5  39
ENDBRANCH   3   5
BRANCH   1  43
ATOM     43  CA  GLY A   5      -9.295  11.405  30.193  0.00  0.00    +0.176 C 
BRANCH  43  46
ATOM     44  C   GLY A   4      -9.349  10.691  32.464  0.00  0.00    +0.243 C 
ATOM     45  O   GLY A   4      -9.908  11.709  32.820  0.00  0.00    -0.273 OA
ATOM     46  N   GLY A   5      -8.864  10.509  31.255  0.00  0.00    -0.295 N 
ATOM     47  H   GLY A   5      -8.188   9.742  31.063  0.00  0.00    +0.150 HD
BRANCH  44  48
ATOM     48  CA  GLY A   4      -9.233   9.535  33.408  0.00  0.00    +0.176 C 
BRANCH  48  51
ATOM     49  C   ILE A   3      -8.321  10.023  35.512  0.00  0.00    +0.241 C 
ATOM     50  O   ILE A   3      -7.252   9.584  35.124  0.00  0.00    -0.273 OA
ATOM     51  N   GLY A   4      -9.396  10.026  34.761  0.00  0.00    -0.295 N 
ATOM     52  H   GLY A   4     -10.314  10.362  35.117  0.00  0.00    +0.150 HD
BRANCH  49  53
ATOM     53  CA  ILE A   3      -8.447  10.595  36.900  0.00  0.00    +0.149 C 
BRANCH  53  56
ATOM     54  C   MET A   2      -7.621   9.476  38.892  0.00  0.00    +0.241 C 
ATOM     55  O   MET A   2      -8.702   9.532  39.456  0.00  0.00    -0.273 OA
ATOM     56  N   ILE A   3      -7.374  10.007  37.708  0.00  0.00    -0.297 N 
ATOM     57  H   ILE A   3      -6.400  10.008  37.342  0.00  0.00    +0.150 HD
BRANCH  54  58
ATOM     58  CA  MET A   2      -6.464   8.782  39.547  0.00  0.00    +0.149 C 
BRANCH  58  61
ATOM     59  C   LYS A   1      -5.430   9.523  41.643  0.00  0.00    +0.238 C 
ATOM     60  O   LYS A   1      -4.323   9.539  41.134  0.00  0.00    -0.274 OA
ATOM     61  N   MET A   2      -6.503   9.091  40.981  0.00  0.00    -0.297 N 
ATOM     62  H   MET A   2      -7.397   8.969  41.498  0.00  0.00    +0.150 HD
BRANCH  59  63
ATOM     63  CA  LYS A   1      -5.636   9.993  43.085  0.00  0.00    +0.145 C 
BRANCH  63  64
ATOM     64  N   LYS A   1      -4.335  10.108  43.757  0.00  0.00    -0.238 NA
ATOM     65  H   LYS A   1      -3.495  10.390  43.212  0.00  0.00    +0.142 HD
ENDBRANCH  63  64
BRANCH  63  66
ATOM     66  CB  LYS A   1      -6.375  11.357  43.120  0.00  0.00    +0.026 C 
BRANCH  66  67
ATOM     67  CG  LYS A   1      -7.872  11.241  42.791  0.00  0.00    -0.000 C 
BRANCH  67  68
ATOM     68  CD  LYS A   1      -8.651  12.506  42.419  0.00  0.00    -0.024 C 
BRANCH  68  69
ATOM     69  CE  LYS A   1     -10.097  12.106  42.052  0.00  0.00    -0.086 C 
BRANCH  69  70
ATOM     70  NZ  LYS A   1     -10.910  13.302  41.750  0.00  0.00    +0.380 N 
ATOM     71  HZ1 LYS A   1     -10.934  13.923  42.584  0.00  0.00    -0.089 HD
ATOM     72  HZ2 LYS A   1     -11.878  13.009  41.506  0.00  0.00    -0.089 HD
ATOM     73  HZ3 LYS A   1     -10.488  13.813  40.948  0.00  0.00    -0.089 HD
ENDBRANCH  69  70
ENDBRANCH  68  69
ENDBRANCH  67  68
ENDBRANCH  66  67
ENDBRANCH  63  66
ENDBRANCH  59  63
ENDBRANCH  58  61
BRANCH  58  74
ATOM     74  CB  MET A   2      -6.646   7.287  39.328  0.00  0.00    +0.041 C 
BRANCH  74  75
ATOM     75  CG  MET A   2      -5.361   6.535  39.650  0.00  0.00    +0.060 C 
BRANCH  75  76
ATOM     76  SD  MET A   2      -5.641   4.766  39.807  0.00  0.00    -0.139 S 
ATOM     77  CE  MET A   2      -6.065   4.702  41.564  0.00  0.00    +0.069 C 
ENDBRANCH  75  76
ENDBRANCH  74  75
ENDBRANCH  58  74
ENDBRANCH  54  58
ENDBRANCH  53  56
BRANCH  53  78
ATOM     78  CB  ILE A   3      -8.277  12.113  36.807  0.00  0.00    +0.027 C 
ATOM     79  CG2 ILE A   3      -8.432  12.795  38.174  0.00  0.00    +0.002 C 
BRANCH  78  80
ATOM     80  CG1 ILE A   3      -6.971  12.518  36.146  0.00  0.00    +0.002 C 
ATOM     81  CD1 ILE A   3      -6.902  14.018  36.009  0.00  0.00    +0.000 C 
ENDBRANCH  78  80
ENDBRANCH  53  78
ENDBRANCH  49  53
ENDBRANCH  48  51
ENDBRANCH  44  48
ENDBRANCH  43  46
ENDBRANCH   1  43
TORSDOF 36
REMARK  Name = ../refined-set-2016/1bv7/1bv7_pocket.pdb
REMARK  238 active torsions:
REMARK  status: ('A' for Active; 'I' for Inactive)
REMARK    1  A    between atoms: _1  and  _3
REMARK    2  A    between atoms: _3  and  _4
REMARK    3  A    between atoms: _3  and  _6
REMARK    4  A    between atoms: _6  and  _7
REMARK    5  A    between atoms: _7  and  _8
REMARK    6  A    between atoms: _8  and  _9
REMARK    7  A    between atoms: _18  and  _20
REMARK    8  A    between atoms: _20  and  _21
REMARK    9  A    between atoms: _20  and  _23
REMARK   10  A    between atoms: _23  and  _24
REMARK   11  A    between atoms: _27  and  _29
REMARK   12  A    between atoms: _29  and  _30
REMARK   13  A    between atoms: _29  and  _32
REMARK   14  A    between atoms: _32  and  _33
REMARK   15  A    between atoms: _36  and  _38
REMARK   16  A    between atoms: _38  and  _39
REMARK   17  A    between atoms: _38  and  _41
REMARK   18  A    between atoms: _41  and  _42
REMARK   19  A    between atoms: _45  and  _47
REMARK   20  A    between atoms: _47  and  _48
REMARK   21  A    between atoms: _47  and  _50
REMARK   22  A    between atoms: _50  and  _51
REMARK   23  A    between atoms: _54  and  _56
REMARK   24  A    between atoms: _56  and  _57
REMARK   25  A    between atoms: _59  and  _61
REMARK   26  A    between atoms: _61  and  _62
REMARK   27  A    between atoms: _65  and  _67
REMARK   28  A    between atoms: _67  and  _68
REMARK   29  A    between atoms: _67  and  _70
REMARK   30  A    between atoms: _70  and  _71
REMARK   31  A    between atoms: _74  and  _76
REMARK   32  A    between atoms: _76  and  _77
REMARK   33  A    between atoms: _76  and  _79
REMARK   34  A    between atoms: _79  and  _80
REMARK   35  A    between atoms: _83  and  _85
REMARK   36  A    between atoms: _85  and  _86
REMARK   37  A    between atoms: _85  and  _88
REMARK   38  A    between atoms: _88  and  _89
REMARK   39  A    between atoms: _92  and  _94
REMARK   40  A    between atoms: _94  and  _95
REMARK   41  A    between atoms: _94  and  _97
REMARK   42  A    between atoms: _100  and  _102
REMARK   43  A    between atoms: _102  and  _103
REMARK   44  A    between atoms: _102  and  _105
REMARK   45  A    between atoms: _105  and  _106
REMARK   46  A    between atoms: _109  and  _111
REMARK   47  A    between atoms: _111  and  _112
REMARK   48  A    between atoms: _111  and  _114
REMARK   49  A    between atoms: _114  and  _115
REMARK   50  A    between atoms: _115  and  _116
REMARK   51  A    between atoms: _116  and  _117
REMARK   52  A    between atoms: _117  and  _118
REMARK   53  A    between atoms: _122  and  _124
REMARK   54  A    between atoms: _124  and  _125
REMARK   55  A    between atoms: _124  and  _127
REMARK   56  A    between atoms: _127  and  _128
REMARK   57  A    between atoms: _128  and  _129
REMARK   58  A    between atoms: _131  and  _133
REMARK   59  A    between atoms: _133  and  _134
REMARK   60  A    between atoms: _133  and  _136
REMARK   61  A    between atoms: _136  and  _137
REMARK   62  A    between atoms: _140  and  _142
REMARK   63  A    between atoms: _142  and  _143
REMARK   64  A    between atoms: _145  and  _147
REMARK   65  A    between atoms: _147  and  _148
REMARK   66  A    between atoms: _150  and  _152
REMARK   67  A    between atoms: _152  and  _153
REMARK   68  A    between atoms: _152  and  _155
REMARK   69  A    between atoms: _155  and  _156
REMARK   70  A    between atoms: _159  and  _161
REMARK   71  A    between atoms: _161  and  _162
REMARK   72  A    between atoms: _164  and  _166
REMARK   73  A    between atoms: _166  and  _167
REMARK   74  A    between atoms: _169  and  _171
REMARK   75  A    between atoms: _171  and  _172
REMARK   76  A    between atoms: _171  and  _174
REMARK   77  A    between atoms: _174  and  _175
REMARK   78  A    between atoms: _181  and  _183
REMARK   79  A    between atoms: _183  and  _184
REMARK   80  A    between atoms: _183  and  _186
REMARK   81  A    between atoms: _186  and  _187
REMARK   82  A    between atoms: _190  and  _192
REMARK   83  A    between atoms: _192  and  _193
REMARK   84  A    between atoms: _192  and  _195
REMARK   85  A    between atoms: _195  and  _196
REMARK   86  A    between atoms: _200  and  _201
REMARK   87  A    between atoms: _206  and  _208
REMARK   88  A    between atoms: _208  and  _209
REMARK   89  A    between atoms: _208  and  _211
REMARK   90  A    between atoms: _211  and  _212
REMARK   91  A    between atoms: _216  and  _217
REMARK   92  A    between atoms: _222  and  _224
REMARK   93  A    between atoms: _224  and  _225
REMARK   94  A    between atoms: _224  and  _227
REMARK   95  A    between atoms: _227  and  _228
REMARK   96  A    between atoms: _234  and  _236
REMARK   97  A    between atoms: _236  and  _237
REMARK   98  A    between atoms: _236  and  _239
REMARK   99  A    between atoms: _239  and  _240
REMARK  100  A    between atoms: _245  and  _247
REMARK  101  A    between atoms: _247  and  _248
REMARK  102  A    between atoms: _247  and  _250
REMARK  103  A    between atoms: _250  and  _251
REMARK  104  A    between atoms: _254  and  _256
REMARK  105  A    between atoms: _256  and  _257
REMARK  106  A    between atoms: _256  and  _259
REMARK  107  A    between atoms: _259  and  _260
REMARK  108  A    between atoms: _263  and  _265
REMARK  109  A    between atoms: _265  and  _266
REMARK  110  A    between atoms: _268  and  _270
REMARK  111  A    between atoms: _270  and  _271
REMARK  112  A    between atoms: _270  and  _273
REMARK  113  A    between atoms: _273  and  _274
REMARK  114  A    between atoms: _274  and  _275
REMARK  115  A    between atoms: _275  and  _276
REMARK  116  A    between atoms: _285  and  _287
REMARK  117  A    between atoms: _287  and  _288
REMARK  118  A    between atoms: _287  and  _290
REMARK  119  A    between atoms: _290  and  _291
REMARK  120  A    between atoms: _296  and  _298
REMARK  121  A    between atoms: _298  and  _299
REMARK  122  A    between atoms: _298  and  _301
REMARK  123  A    between atoms: _301  and  _302
REMARK  124  A    between atoms: _302  and  _303
REMARK  125  A    between atoms: _303  and  _304
REMARK  126  A    between atoms: _313  and  _315
REMARK  127  A    between atoms: _315  and  _316
REMARK  128  A    between atoms: _315  and  _318
REMARK  129  A    between atoms: _318  and  _319
REMARK  130  A    between atoms: _322  and  _324
REMARK  131  A    between atoms: _324  and  _325
REMARK  132  A    between atoms: _324  and  _327
REMARK  133  A    between atoms: _327  and  _328
REMARK  134  A    between atoms: _331  and  _333
REMARK  135  A    between atoms: _333  and  _334
REMARK  136  A    between atoms: _333  and  _336
REMARK  137  A    between atoms: _336  and  _337
REMARK  138  A    between atoms: _340  and  _342
REMARK  139  A    between atoms: _342  and  _343
REMARK  140  A    between atoms: _342  and  _345
REMARK  141  A    between atoms: _345  and  _346
REMARK  142  A    between atoms: _349  and  _351
REMARK  143  A    between atoms: _351  and  _352
REMARK  144  A    between atoms: _354  and  _356
REMARK  145  A    between atoms: _356  and  _357
REMARK  146  A    between atoms: _360  and  _362
REMARK  147  A    between atoms: _362  and  _363
REMARK  148  A    between atoms: _362  and  _365
REMARK  149  A    between atoms: _365  and  _366
REMARK  150  A    between atoms: _369  and  _371
REMARK  151  A    between atoms: _371  and  _372
REMARK  152  A    between atoms: _371  and  _374
REMARK  153  A    between atoms: _374  and  _375
REMARK  154  A    between atoms: _378  and  _380
REMARK  155  A    between atoms: _380  and  _381
REMARK  156  A    between atoms: _380  and  _383
REMARK  157  A    between atoms: _383  and  _384
REMARK  158  A    between atoms: _387  and  _389
REMARK  159  A    between atoms: _389  and  _390
REMARK  160  A    between atoms: _389  and  _392
REMARK  161  A    between atoms: _395  and  _397
REMARK  162  A    between atoms: _397  and  _398
REMARK  163  A    between atoms: _397  and  _400
REMARK  164  A    between atoms: _400  and  _401
REMARK  165  A    between atoms: _404  and  _406
REMARK  166  A    between atoms: _406  and  _407
REMARK  167  A    between atoms: _406  and  _409
REMARK  168  A    between atoms: _409  and  _410
REMARK  169  A    between atoms: _410  and  _411
REMARK  170  A    between atoms: _411  and  _412
REMARK  171  A    between atoms: _412  and  _413
REMARK  172  A    between atoms: _417  and  _419
REMARK  173  A    between atoms: _419  and  _420
REMARK  174  A    between atoms: _419  and  _422
REMARK  175  A    between atoms: _422  and  _423
REMARK  176  A    between atoms: _423  and  _424
REMARK  177  A    between atoms: _426  and  _428
REMARK  178  A    between atoms: _428  and  _429
REMARK  179  A    between atoms: _428  and  _431
REMARK  180  A    between atoms: _431  and  _432
REMARK  181  A    between atoms: _435  and  _437
REMARK  182  A    between atoms: _437  and  _438
REMARK  183  A    between atoms: _440  and  _442
REMARK  184  A    between atoms: _442  and  _443
REMARK  185  A    between atoms: _445  and  _447
REMARK  186  A    between atoms: _447  and  _448
REMARK  187  A    between atoms: _447  and  _450
REMARK  188  A    between atoms: _450  and  _451
REMARK  189  A    between atoms: _454  and  _456
REMARK  190  A    between atoms: _456  and  _457
REMARK  191  A    between atoms: _459  and  _461
REMARK  192  A    between atoms: _461  and  _462
REMARK  193  A    between atoms: _464  and  _466
REMARK  194  A    between atoms: _466  and  _467
REMARK  195  A    between atoms: _466  and  _469
REMARK  196  A    between atoms: _469  and  _470
REMARK  197  A    between atoms: _476  and  _478
REMARK  198  A    between atoms: _478  and  _479
REMARK  199  A    between atoms: _478  and  _481
REMARK  200  A    between atoms: _481  and  _482
REMARK  201  A    between atoms: _485  and  _487
REMARK  202  A    between atoms: _487  and  _488
REMARK  203  A    between atoms: _487  and  _490
REMARK  204  A    between atoms: _490  and  _491
REMARK  205  A    between atoms: _495  and  _496
REMARK  206  A    between atoms: _501  and  _503
REMARK  207  A    between atoms: _503  and  _504
REMARK  208  A    between atoms: _503  and  _506
REMARK  209  A    between atoms: _506  and  _507
REMARK  210  A    between atoms: _511  and  _512
REMARK  211  A    between atoms: _517  and  _519
REMARK  212  A    between atoms: _519  and  _520
REMARK  213  A    between atoms: _519  and  _522
REMARK  214  A    between atoms: _522  and  _523
REMARK  215  A    between atoms: _529  and  _531
REMARK  216  A    between atoms: _531  and  _532
REMARK  217  A    between atoms: _531  and  _534
REMARK  218  A    between atoms: _534  and  _535
REMARK  219  A    between atoms: _540  and  _542
REMARK  220  A    between atoms: _542  and  _543
REMARK  221  A    between atoms: _542  and  _545
REMARK  222  A    between atoms: _545  and  _546
REMARK  223  A    between atoms: _549  and  _551
REMARK  224  A    between atoms: _551  and  _552
REMARK  225  A    between atoms: _551  and  _554
REMARK  226  A    between atoms: _554  and  _555
REMARK  227  A    between atoms: _558  and  _560
REMARK  228  A    between atoms: _560  and  _561
REMARK  229  A    between atoms: _563  and  _565
REMARK  230  A    between atoms: _565  and  _566
REMARK  231  A    between atoms: _565  and  _568
REMARK  232  A    between atoms: _568  and  _569
REMARK  233  A    between atoms: _569  and  _570
REMARK  234  A    between atoms: _570  and  _571
REMARK  235  A    between atoms: _580  and  _582
REMARK  236  A    between atoms: _582  and  _583
REMARK  237  A    between atoms: _582  and  _585
REMARK  238  A    between atoms: _585  and  _586
REMARK                            x       y       z     vdW  Elec       q    Type
REMARK                         _______ _______ _______ _____ _____    ______ ____
ROOT
ATOM      1  CA  LEU A   1      -4.036  17.852  41.225  0.00  0.00    +0.133 C 
ENDROOT
BRANCH   1   2
ATOM      2  N   LEU A   1      -4.713  19.156  41.286  0.00  0.00    -0.239 NA
ATOM      3  H   LEU A   1      -5.069  19.585  40.408  0.00  0.00    +0.142 HD
ENDBRANCH   1   2
BRANCH   1   4
ATOM      4  C   LEU A   1      -2.805  18.028  40.343  0.00  0.00    +0.224 C 
ATOM      5  O   LEU A   1      -2.870  18.727  39.333  0.00  0.00    -0.287 OA
ENDBRANCH   1   4
BRANCH   1   6
ATOM      6  CB  LEU A   1      -4.924  16.830  40.510  0.00  0.00    +0.025 C 
BRANCH   6   7
ATOM      7  CG  LEU A   1      -6.433  16.861  40.780  0.00  0.00    +0.002 C 
ATOM      8  CD2 LEU A   1      -6.746  16.554  42.233  0.00  0.00    +0.000 C 
ATOM      9  CD1 LEU A   1      -7.146  15.843  39.900  0.00  0.00    +0.000 C 
ENDBRANCH   6   7
ENDBRANCH   1   6
TORSDOF 4
REMARK  Name = ../refined-set-2016/1bv7/1bv7_pocket.pdb
REMARK  238 active torsions:
REMARK  status: ('A' for Active; 'I' for Inactive)
REMARK    1  A    between atoms: _1  and  _3
REMARK    2  A    between atoms: _3  and  _4
REMARK    3  A    between atoms: _3  and  _6
REMARK    4  A    between atoms: _6  and  _7
REMARK    5  A    between atoms: _7  and  _8
REMARK    6  A    between atoms: _8  and  _9
REMARK    7  A    between atoms: _18  and  _20
REMARK    8  A    between atoms: _20  and  _21
REMARK    9  A    between atoms: _20  and  _23
REMARK   10  A    between atoms: _23  and  _24
REMARK   11  A    between atoms: _27  and  _29
REMARK   12  A    between atoms: _29  and  _30
REMARK   13  A    between atoms: _29  and  _32
REMARK   14  A    between atoms: _32  and  _33
REMARK   15  A    between atoms: _36  and  _38
REMARK   16  A    between atoms: _38  and  _39
REMARK   17  A    between atoms: _38  and  _41
REMARK   18  A    between atoms: _41  and  _42
REMARK   19  A    between atoms: _45  and  _47
REMARK   20  A    between atoms: _47  and  _48
REMARK   21  A    between atoms: _47  and  _50
REMARK   22  A    between atoms: _50  and  _51
REMARK   23  A    between atoms: _54  and  _56
REMARK   24  A    between atoms: _56  and  _57
REMARK   25  A    between atoms: _59  and  _61
REMARK   26  A    between atoms: _61  and  _62
REMARK   27  A    between atoms: _65  and  _67
REMARK   28  A    between atoms: _67  and  _68
REMARK   29  A    between atoms: _67  and  _70
REMARK   30  A    between atoms: _70  and  _71
REMARK   31  A    between atoms: _74  and  _76
REMARK   32  A    between atoms: _76  and  _77
REMARK   33  A    between atoms: _76  and  _79
REMARK   34  A    between atoms: _79  and  _80
REMARK   35  A    between atoms: _83  and  _85
REMARK   36  A    between atoms: _85  and  _86
REMARK   37  A    between atoms: _85  and  _88
REMARK   38  A    between atoms: _88  and  _89
REMARK   39  A    between atoms: _92  and  _94
REMARK   40  A    between atoms: _94  and  _95
REMARK   41  A    between atoms: _94  and  _97
REMARK   42  A    between atoms: _100  and  _102
REMARK   43  A    between atoms: _102  and  _103
REMARK   44  A    between atoms: _102  and  _105
REMARK   45  A    between atoms: _105  and  _106
REMARK   46  A    between atoms: _109  and  _111
REMARK   47  A    between atoms: _111  and  _112
REMARK   48  A    between atoms: _111  and  _114
REMARK   49  A    between atoms: _114  and  _115
REMARK   50  A    between atoms: _115  and  _116
REMARK   51  A    between atoms: _116  and  _117
REMARK   52  A    between atoms: _117  and  _118
REMARK   53  A    between atoms: _122  and  _124
REMARK   54  A    between atoms: _124  and  _125
REMARK   55  A    between atoms: _124  and  _127
REMARK   56  A    between atoms: _127  and  _128
REMARK   57  A    between atoms: _128  and  _129
REMARK   58  A    between atoms: _131  and  _133
REMARK   59  A    between atoms: _133  and  _134
REMARK   60  A    between atoms: _133  and  _136
REMARK   61  A    between atoms: _136  and  _137
REMARK   62  A    between atoms: _140  and  _142
REMARK   63  A    between atoms: _142  and  _143
REMARK   64  A    between atoms: _145  and  _147
REMARK   65  A    between atoms: _147  and  _148
REMARK   66  A    between atoms: _150  and  _152
REMARK   67  A    between atoms: _152  and  _153
REMARK   68  A    between atoms: _152  and  _155
REMARK   69  A    between atoms: _155  and  _156
REMARK   70  A    between atoms: _159  and  _161
REMARK   71  A    between atoms: _161  and  _162
REMARK   72  A    between atoms: _164  and  _166
REMARK   73  A    between atoms: _166  and  _167
REMARK   74  A    between atoms: _169  and  _171
REMARK   75  A    between atoms: _171  and  _172
REMARK   76  A    between atoms: _171  and  _174
REMARK   77  A    between atoms: _174  and  _175
REMARK   78  A    between atoms: _181  and  _183
REMARK   79  A    between atoms: _183  and  _184
REMARK   80  A    between atoms: _183  and  _186
REMARK   81  A    between atoms: _186  and  _187
REMARK   82  A    between atoms: _190  and  _192
REMARK   83  A    between atoms: _192  and  _193
REMARK   84  A    between atoms: _192  and  _195
REMARK   85  A    between atoms: _195  and  _196
REMARK   86  A    between atoms: _200  and  _201
REMARK   87  A    between atoms: _206  and  _208
REMARK   88  A    between atoms: _208  and  _209
REMARK   89  A    between atoms: _208  and  _211
REMARK   90  A    between atoms: _211  and  _212
REMARK   91  A    between atoms: _216  and  _217
REMARK   92  A    between atoms: _222  and  _224
REMARK   93  A    between atoms: _224  and  _225
REMARK   94  A    between atoms: _224  and  _227
REMARK   95  A    between atoms: _227  and  _228
REMARK   96  A    between atoms: _234  and  _236
REMARK   97  A    between atoms: _236  and  _237
REMARK   98  A    between atoms: _236  and  _239
REMARK   99  A    between atoms: _239  and  _240
REMARK  100  A    between atoms: _245  and  _247
REMARK  101  A    between atoms: _247  and  _248
REMARK  102  A    between atoms: _247  and  _250
REMARK  103  A    between atoms: _250  and  _251
REMARK  104  A    between atoms: _254  and  _256
REMARK  105  A    between atoms: _256  and  _257
REMARK  106  A    between atoms: _256  and  _259
REMARK  107  A    between atoms: _259  and  _260
REMARK  108  A    between atoms: _263  and  _265
REMARK  109  A    between atoms: _265  and  _266
REMARK  110  A    between atoms: _268  and  _270
REMARK  111  A    between atoms: _270  and  _271
REMARK  112  A    between atoms: _270  and  _273
REMARK  113  A    between atoms: _273  and  _274
REMARK  114  A    between atoms: _274  and  _275
REMARK  115  A    between atoms: _275  and  _276
REMARK  116  A    between atoms: _285  and  _287
REMARK  117  A    between atoms: _287  and  _288
REMARK  118  A    between atoms: _287  and  _290
REMARK  119  A    between atoms: _290  and  _291
REMARK  120  A    between atoms: _296  and  _298
REMARK  121  A    between atoms: _298  and  _299
REMARK  122  A    between atoms: _298  and  _301
REMARK  123  A    between atoms: _301  and  _302
REMARK  124  A    between atoms: _302  and  _303
REMARK  125  A    between atoms: _303  and  _304
REMARK  126  A    between atoms: _313  and  _315
REMARK  127  A    between atoms: _315  and  _316
REMARK  128  A    between atoms: _315  and  _318
REMARK  129  A    between atoms: _318  and  _319
REMARK  130  A    between atoms: _322  and  _324
REMARK  131  A    between atoms: _324  and  _325
REMARK  132  A    between atoms: _324  and  _327
REMARK  133  A    between atoms: _327  and  _328
REMARK  134  A    between atoms: _331  and  _333
REMARK  135  A    between atoms: _333  and  _334
REMARK  136  A    between atoms: _333  and  _336
REMARK  137  A    between atoms: _336  and  _337
REMARK  138  A    between atoms: _340  and  _342
REMARK  139  A    between atoms: _342  and  _343
REMARK  140  A    between atoms: _342  and  _345
REMARK  141  A    between atoms: _345  and  _346
REMARK  142  A    between atoms: _349  and  _351
REMARK  143  A    between atoms: _351  and  _352
REMARK  144  A    between atoms: _354  and  _356
REMARK  145  A    between atoms: _356  and  _357
REMARK  146  A    between atoms: _360  and  _362
REMARK  147  A    between atoms: _362  and  _363
REMARK  148  A    between atoms: _362  and  _365
REMARK  149  A    between atoms: _365  and  _366
REMARK  150  A    between atoms: _369  and  _371
REMARK  151  A    between atoms: _371  and  _372
REMARK  152  A    between atoms: _371  and  _374
REMARK  153  A    between atoms: _374  and  _375
REMARK  154  A    between atoms: _378  and  _380
REMARK  155  A    between atoms: _380  and  _381
REMARK  156  A    between atoms: _380  and  _383
REMARK  157  A    between atoms: _383  and  _384
REMARK  158  A    between atoms: _387  and  _389
REMARK  159  A    between atoms: _389  and  _390
REMARK  160  A    between atoms: _389  and  _392
REMARK  161  A    between atoms: _395  and  _397
REMARK  162  A    between atoms: _397  and  _398
REMARK  163  A    between atoms: _397  and  _400
REMARK  164  A    between atoms: _400  and  _401
REMARK  165  A    between atoms: _404  and  _406
REMARK  166  A    between atoms: _406  and  _407
REMARK  167  A    between atoms: _406  and  _409
REMARK  168  A    between atoms: _409  and  _410
REMARK  169  A    between atoms: _410  and  _411
REMARK  170  A    between atoms: _411  and  _412
REMARK  171  A    between atoms: _412  and  _413
REMARK  172  A    between atoms: _417  and  _419
REMARK  173  A    between atoms: _419  and  _420
REMARK  174  A    between atoms: _419  and  _422
REMARK  175  A    between atoms: _422  and  _423
REMARK  176  A    between atoms: _423  and  _424
REMARK  177  A    between atoms: _426  and  _428
REMARK  178  A    between atoms: _428  and  _429
REMARK  179  A    between atoms: _428  and  _431
REMARK  180  A    between atoms: _431  and  _432
REMARK  181  A    between atoms: _435  and  _437
REMARK  182  A    between atoms: _437  and  _438
REMARK  183  A    between atoms: _440  and  _442
REMARK  184  A    between atoms: _442  and  _443
REMARK  185  A    between atoms: _445  and  _447
REMARK  186  A    between atoms: _447  and  _448
REMARK  187  A    between atoms: _447  and  _450
REMARK  188  A    between atoms: _450  and  _451
REMARK  189  A    between atoms: _454  and  _456
REMARK  190  A    between atoms: _456  and  _457
REMARK  191  A    between atoms: _459  and  _461
REMARK  192  A    between atoms: _461  and  _462
REMARK  193  A    between atoms: _464  and  _466
REMARK  194  A    between atoms: _466  and  _467
REMARK  195  A    between atoms: _466  and  _469
REMARK  196  A    between atoms: _469  and  _470
REMARK  197  A    between atoms: _476  and  _478
REMARK  198  A    between atoms: _478  and  _479
REMARK  199  A    between atoms: _478  and  _481
REMARK  200  A    between atoms: _481  and  _482
REMARK  201  A    between atoms: _485  and  _487
REMARK  202  A    between atoms: _487  and  _488
REMARK  203  A    between atoms: _487  and  _490
REMARK  204  A    between atoms: _490  and  _491
REMARK  205  A    between atoms: _495  and  _496
REMARK  206  A    between atoms: _501  and  _503
REMARK  207  A    between atoms: _503  and  _504
REMARK  208  A    between atoms: _503  and  _506
REMARK  209  A    between atoms: _506  and  _507
REMARK  210  A    between atoms: _511  and  _512
REMARK  211  A    between atoms: _517  and  _519
REMARK  212  A    between atoms: _519  and  _520
REMARK  213  A    between atoms: _519  and  _522
REMARK  214  A    between atoms: _522  and  _523
REMARK  215  A    between atoms: _529  and  _531
REMARK  216  A    between atoms: _531  and  _532
REMARK  217  A    between atoms: _531  and  _534
REMARK  218  A    between atoms: _534  and  _535
REMARK  219  A    between atoms: _540  and  _542
REMARK  220  A    between atoms: _542  and  _543
REMARK  221  A    between atoms: _542  and  _545
REMARK  222  A    between atoms: _545  and  _546
REMARK  223  A    between atoms: _549  and  _551
REMARK  224  A    between atoms: _551  and  _552
REMARK  225  A    between atoms: _551  and  _554
REMARK  226  A    between atoms: _554  and  _555
REMARK  227  A    between atoms: _558  and  _560
REMARK  228  A    between atoms: _560  and  _561
REMARK  229  A    between atoms: _563  and  _565
REMARK  230  A    between atoms: _565  and  _566
REMARK  231  A    between atoms: _565  and  _568
REMARK  232  A    between atoms: _568  and  _569
REMARK  233  A    between atoms: _569  and  _570
REMARK  234  A    between atoms: _570  and  _571
REMARK  235  A    between atoms: _580  and  _582
REMARK  236  A    between atoms: _582  and  _583
REMARK  237  A    between atoms: _582  and  _585
REMARK  238  A    between atoms: _585  and  _586
REMARK                            x       y       z     vdW  Elec       q    Type
REMARK                         _______ _______ _______ _____ _____    ______ ____
ROOT
ATOM      1  CA  ILE A   6      -5.683  22.632  32.934  0.00  0.00    +0.149 C 
ENDROOT
BRANCH   1   2
ATOM      2  C   ILE A   6      -6.380  23.202  34.144  0.00  0.00    +0.241 C 
ATOM      3  O   ILE A   6      -6.254  22.677  35.240  0.00  0.00    -0.273 OA
ATOM      4  N   ILE A   7      -7.114  24.276  33.905  0.00  0.00    -0.297 N 
ATOM      5  H   ILE A   7      -7.017  24.766  32.993  0.00  0.00    +0.150 HD
BRANCH   4   6
ATOM      6  CA  ILE A   7      -8.061  24.790  34.898  0.00  0.00    +0.149 C 
BRANCH   6   7
ATOM      7  C   ILE A   7      -9.443  24.261  34.588  0.00  0.00    +0.241 C 
ATOM      8  N   GLY A   8      -9.920  23.388  35.458  0.00  0.00    -0.295 N 
ATOM      9  H   GLY A   8      -9.384  23.145  36.315  0.00  0.00    +0.150 HD
ATOM     10  O   ILE A   7     -10.047  24.615  33.588  0.00  0.00    -0.273 OA
BRANCH   8  11
ATOM     11  CA  GLY A   8     -11.215  22.773  35.190  0.00  0.00    +0.176 C 
BRANCH  11  12
ATOM     12  C   GLY A   8     -12.296  23.487  35.939  0.00  0.00    +0.243 C 
ATOM     13  O   GLY A   8     -12.105  24.525  36.563  0.00  0.00    -0.273 OA
ATOM     14  N   ARG A   9     -13.478  22.907  35.869  0.00  0.00    -0.297 N 
ATOM     15  H   ARG A   9     -13.562  21.963  35.442  0.00  0.00    +0.150 HD
BRANCH  14  16
ATOM     16  CA  ARG A   9     -14.668  23.573  36.383  0.00  0.00    +0.149 C 
BRANCH  16  17
ATOM     17  C   ARG A   9     -14.693  23.820  37.873  0.00  0.00    +0.241 C 
ATOM     18  N   ASN A  10     -13.963  23.015  38.620  0.00  0.00    -0.298 N 
ATOM     19  H   ASN A  10     -13.463  22.193  38.226  0.00  0.00    +0.150 HD
ATOM     20  O   ARG A   9     -15.328  24.749  38.355  0.00  0.00    -0.273 OA
BRANCH  18  21
ATOM     21  CA  ASN A  10     -13.906  23.358  40.036  0.00  0.00    +0.146 C 
BRANCH  21  22
ATOM     22  C   ASN A  10     -13.327  24.748  40.331  0.00  0.00    +0.227 C 
ATOM     23  O   ASN A  10     -13.787  25.452  41.217  0.00  0.00    -0.286 OA
ENDBRANCH  21  22
BRANCH  21  24
ATOM     24  CB  ASN A  10     -13.196  22.269  40.842  0.00  0.00    +0.112 C 
BRANCH  24  25
ATOM     25  CG  ASN A  10     -11.727  22.303  40.603  0.00  0.00    +0.222 C 
ATOM     26  ND2 ASN A  10     -10.970  22.218  41.692  0.00  0.00    -0.329 N 
ATOM     27 HD21 ASN A  10     -11.414  22.125  42.628  0.00  0.00    +0.145 HD
ATOM     28 HD22 ASN A  10      -9.934  22.245  41.608  0.00  0.00    +0.145 HD
ATOM     29  OD1 ASN A  10     -11.291  22.414  39.473  0.00  0.00    -0.275 OA
ENDBRANCH  24  25
ENDBRANCH  21  24
ENDBRANCH  18  21
ENDBRANCH  16  17
BRANCH  16  30
ATOM     30  CB  ARG A   9     -15.882  22.770  35.991  0.00  0.00    +0.033 C 
BRANCH  30  31
ATOM     31  CG  ARG A   9     -16.362  22.930  34.546  0.00  0.00    +0.045 C 
BRANCH  31  32
ATOM     32  CD  ARG A   9     -17.285  21.775  34.163  0.00  0.00    +0.174 C 
BRANCH  32  33
ATOM     33  NE  ARG A   9     -18.340  21.625  35.157  0.00  0.00    -0.265 N 
ATOM     34  CZ  ARG A   9     -18.505  20.474  35.802  0.00  0.00    +0.342 C 
ATOM     35  NH2 ARG A   9     -19.328  20.407  36.833  0.00  0.00    -0.292 N 
ATOM     36 HH21 ARG A   9     -19.457  19.507  37.338  0.00  0.00    +0.255 HD
ATOM     37 HH22 ARG A   9     -19.847  21.254  37.140  0.00  0.00    +0.255 HD
ATOM     38  NH1 ARG A   9     -17.856  19.384  35.448  0.00  0.00    -0.292 N 
ATOM     39 HH11 ARG A   9     -18.005  18.497  35.971  0.00  0.00    +0.255 HD
ATOM     40 HH12 ARG A   9     -17.195  19.410  34.646  0.00  0.00    +0.255 HD
ATOM     41  HE  ARG A   9     -18.970  22.426  35.364  0.00  0.00    +0.259 HD
ENDBRANCH  32  33
ENDBRANCH  31  32
ENDBRANCH  30  31
ENDBRANCH  16  30
ENDBRANCH  14  16
ENDBRANCH  11  12
ENDBRANCH   8  11
ENDBRANCH   6   7
BRANCH   6  42
ATOM     42  CB  ILE A   7      -8.153  26.331  34.861  0.00  0.00    +0.027 C 
ATOM     43  CG2 ILE A   7      -9.088  26.858  35.980  0.00  0.00    +0.002 C 
BRANCH  42  44
ATOM     44  CG1 ILE A   7      -6.824  27.085  34.882  0.00  0.00    +0.002 C 
ATOM     45  CD1 ILE A   7      -6.061  27.010  36.197  0.00  0.00    +0.000 C 
ENDBRANCH  42  44
ENDBRANCH   6  42
ENDBRANCH   4   6
ENDBRANCH   1   2
BRANCH   1  47
ATOM     46  C   ASN A   5      -3.351  23.161  32.555  0.00  0.00    +0.241 C 
ATOM     47  N   ILE A   6      -4.254  22.489  33.219  0.00  0.00    -0.297 N 
ATOM     48  H   ILE A   6      -3.950  21.836  33.969  0.00  0.00    +0.150 HD
ATOM     49  O   ASN A   5      -3.645  23.931  31.661  0.00  0.00    -0.273 OA
BRANCH  46  50
ATOM     50  CA  ASN A   5      -1.906  22.907  32.901  0.00  0.00    +0.158 C 
BRANCH  50  53
ATOM     51  C   PHE A   4      -1.371  21.393  31.180  0.00  0.00    +0.241 C 
ATOM     52  O   PHE A   4      -1.985  20.532  31.777  0.00  0.00    -0.273 OA
ATOM     53  N   ASN A   5      -1.259  22.613  31.631  0.00  0.00    -0.297 N 
ATOM     54  H   ASN A   5      -0.732  23.341  31.107  0.00  0.00    +0.150 HD
BRANCH  51  55
ATOM     55  CA  PHE A   4      -0.714  21.144  29.858  0.00  0.00    +0.153 C 
BRANCH  55  57
ATOM     56  C   PRO A   3       0.634  19.255  29.079  0.00  0.00    +0.241 C 
ATOM     57  N   PHE A   4      -0.455  19.708  29.738  0.00  0.00    -0.297 N 
ATOM     58  H   PHE A   4      -1.117  19.029  30.165  0.00  0.00    +0.150 HD
ATOM     59  O   PRO A   3       1.480  20.013  28.647  0.00  0.00    -0.273 OA
BRANCH  56  66
ATOM     60  C   THR A   2       0.360  16.945  31.043  0.00  0.00    +0.246 C 
ATOM     61  O   THR A   2       1.343  17.542  31.455  0.00  0.00    -0.273 OA
ATOM     62  N   PRO A   3       0.007  16.889  29.766  0.00  0.00    -0.272 N 
ATOM     63  CD  PRO A   3      -1.058  16.085  29.158  0.00  0.00    +0.094 C 
ATOM     64  CG  PRO A   3      -0.645  16.020  27.698  0.00  0.00    +0.024 C 
ATOM     65  CB  PRO A   3       0.079  17.344  27.463  0.00  0.00    +0.031 C 
ATOM     66  CA  PRO A   3       0.739  17.734  28.812  0.00  0.00    +0.152 C 
BRANCH  60  67
ATOM     67  CA  THR A   2      -0.535  16.211  31.986  0.00  0.00    +0.176 C 
BRANCH  67  69
ATOM     68  C   PRO A   1       0.718  14.385  32.946  0.00  0.00    +0.239 C 
ATOM     69  N   THR A   2       0.364  15.663  32.992  0.00  0.00    -0.295 N 
ATOM     70  H   THR A   2       0.730  16.275  33.749  0.00  0.00    +0.150 HD
ATOM     71  O   PRO A   1       0.307  13.591  32.109  0.00  0.00    -0.274 OA
BRANCH  68  76
ATOM     72  N   PRO A   1       1.106  13.994  35.394  0.00  0.00    -0.210 NA
ATOM     73  CD  PRO A   1       0.779  12.654  35.849  0.00  0.00    +0.089 C 
ATOM     74  CG  PRO A   1       1.220  11.739  34.712  0.00  0.00    +0.021 C 
ATOM     75  CB  PRO A   1       2.212  12.573  33.939  0.00  0.00    +0.028 C 
ATOM     76  CA  PRO A   1       1.685  14.001  34.046  0.00  0.00    +0.149 C 
ENDBRANCH  68  76
ENDBRANCH  67  69
BRANCH  67  77
ATOM     77  CB  THR A   2      -1.569  17.152  32.660  0.00  0.00    +0.137 C 
ATOM     78  CG2 THR A   2      -0.895  18.087  33.635  0.00  0.00    +0.034 C 
BRANCH  77  79
ATOM     79  OG1 THR A   2      -2.326  17.903  31.696  0.00  0.00    -0.382 OA
ATOM     80  HG1 THR A   2      -1.710  18.458  31.155  0.00  0.00    +0.210 HD
ENDBRANCH  77  79
ENDBRANCH  67  77
ENDBRANCH  60  67
ENDBRANCH  56  66
ENDBRANCH  55  57
BRANCH  55  81
ATOM     81  CB  PHE A   4      -1.730  21.689  28.809  0.00  0.00    +0.055 C 
BRANCH  81  82
ATOM     82  CG  PHE A   4      -1.258  21.428  27.408  0.00  0.00    -0.020 A 
ATOM     83  CD2 PHE A   4       0.052  21.796  27.018  0.00  0.00    -0.004 A 
ATOM     84  CE2 PHE A   4       0.540  21.425  25.745  0.00  0.00    -0.000 A 
ATOM     85  CZ  PHE A   4      -0.294  20.704  24.858  0.00  0.00    -0.000 A 
ATOM     86  CE1 PHE A   4      -1.612  20.358  25.243  0.00  0.00    -0.000 A 
ATOM     87  CD1 PHE A   4      -2.098  20.718  26.522  0.00  0.00    -0.004 A 
ENDBRANCH  81  82
ENDBRANCH  55  81
ENDBRANCH  51  55
ENDBRANCH  50  53
BRANCH  50  88
ATOM     88  CB  ASN A   5      -1.256  24.185  33.464  0.00  0.00    +0.114 C 
BRANCH  88  89
ATOM     89  CG  ASN A   5       0.209  23.987  33.834  0.00  0.00    +0.222 C 
ATOM     90  OD1 ASN A   5       0.555  23.072  34.556  0.00  0.00    -0.275 OA
ATOM     91  ND2 ASN A   5       1.081  24.839  33.291  0.00  0.00    -0.329 N 
ATOM     92 HD21 ASN A   5       2.098  24.733  33.480  0.00  0.00    +0.145 HD
ATOM     93 HD22 ASN A   5       0.743  25.609  32.679  0.00  0.00    +0.145 HD
ENDBRANCH  88  89
ENDBRANCH  50  88
ENDBRANCH  46  50
ENDBRANCH   1  47
BRANCH   1  94
ATOM     94  CB  ILE A   6      -6.237  21.229  32.594  0.00  0.00    +0.027 C 
ATOM     95  CG2 ILE A   6      -7.756  21.187  32.550  0.00  0.00    +0.002 C 
BRANCH  94  96
ATOM     96  CG1 ILE A   6      -5.661  20.796  31.233  0.00  0.00    +0.002 C 
ATOM     97  CD1 ILE A   6      -5.905  19.347  30.852  0.00  0.00    +0.000 C 
ENDBRANCH  94  96
ENDBRANCH   1  94
TORSDOF 34
REMARK  Name = ../refined-set-2016/1bv7/1bv7_pocket.pdb
REMARK  238 active torsions:
REMARK  status: ('A' for Active; 'I' for Inactive)
REMARK    1  A    between atoms: _1  and  _3
REMARK    2  A    between atoms: _3  and  _4
REMARK    3  A    between atoms: _3  and  _6
REMARK    4  A    between atoms: _6  and  _7
REMARK    5  A    between atoms: _7  and  _8
REMARK    6  A    between atoms: _8  and  _9
REMARK    7  A    between atoms: _18  and  _20
REMARK    8  A    between atoms: _20  and  _21
REMARK    9  A    between atoms: _20  and  _23
REMARK   10  A    between atoms: _23  and  _24
REMARK   11  A    between atoms: _27  and  _29
REMARK   12  A    between atoms: _29  and  _30
REMARK   13  A    between atoms: _29  and  _32
REMARK   14  A    between atoms: _32  and  _33
REMARK   15  A    between atoms: _36  and  _38
REMARK   16  A    between atoms: _38  and  _39
REMARK   17  A    between atoms: _38  and  _41
REMARK   18  A    between atoms: _41  and  _42
REMARK   19  A    between atoms: _45  and  _47
REMARK   20  A    between atoms: _47  and  _48
REMARK   21  A    between atoms: _47  and  _50
REMARK   22  A    between atoms: _50  and  _51
REMARK   23  A    between atoms: _54  and  _56
REMARK   24  A    between atoms: _56  and  _57
REMARK   25  A    between atoms: _59  and  _61
REMARK   26  A    between atoms: _61  and  _62
REMARK   27  A    between atoms: _65  and  _67
REMARK   28  A    between atoms: _67  and  _68
REMARK   29  A    between atoms: _67  and  _70
REMARK   30  A    between atoms: _70  and  _71
REMARK   31  A    between atoms: _74  and  _76
REMARK   32  A    between atoms: _76  and  _77
REMARK   33  A    between atoms: _76  and  _79
REMARK   34  A    between atoms: _79  and  _80
REMARK   35  A    between atoms: _83  and  _85
REMARK   36  A    between atoms: _85  and  _86
REMARK   37  A    between atoms: _85  and  _88
REMARK   38  A    between atoms: _88  and  _89
REMARK   39  A    between atoms: _92  and  _94
REMARK   40  A    between atoms: _94  and  _95
REMARK   41  A    between atoms: _94  and  _97
REMARK   42  A    between atoms: _100  and  _102
REMARK   43  A    between atoms: _102  and  _103
REMARK   44  A    between atoms: _102  and  _105
REMARK   45  A    between atoms: _105  and  _106
REMARK   46  A    between atoms: _109  and  _111
REMARK   47  A    between atoms: _111  and  _112
REMARK   48  A    between atoms: _111  and  _114
REMARK   49  A    between atoms: _114  and  _115
REMARK   50  A    between atoms: _115  and  _116
REMARK   51  A    between atoms: _116  and  _117
REMARK   52  A    between atoms: _117  and  _118
REMARK   53  A    between atoms: _122  and  _124
REMARK   54  A    between atoms: _124  and  _125
REMARK   55  A    between atoms: _124  and  _127
REMARK   56  A    between atoms: _127  and  _128
REMARK   57  A    between atoms: _128  and  _129
REMARK   58  A    between atoms: _131  and  _133
REMARK   59  A    between atoms: _133  and  _134
REMARK   60  A    between atoms: _133  and  _136
REMARK   61  A    between atoms: _136  and  _137
REMARK   62  A    between atoms: _140  and  _142
REMARK   63  A    between atoms: _142  and  _143
REMARK   64  A    between atoms: _145  and  _147
REMARK   65  A    between atoms: _147  and  _148
REMARK   66  A    between atoms: _150  and  _152
REMARK   67  A    between atoms: _152  and  _153
REMARK   68  A    between atoms: _152  and  _155
REMARK   69  A    between atoms: _155  and  _156
REMARK   70  A    between atoms: _159  and  _161
REMARK   71  A    between atoms: _161  and  _162
REMARK   72  A    between atoms: _164  and  _166
REMARK   73  A    between atoms: _166  and  _167
REMARK   74  A    between atoms: _169  and  _171
REMARK   75  A    between atoms: _171  and  _172
REMARK   76  A    between atoms: _171  and  _174
REMARK   77  A    between atoms: _174  and  _175
REMARK   78  A    between atoms: _181  and  _183
REMARK   79  A    between atoms: _183  and  _184
REMARK   80  A    between atoms: _183  and  _186
REMARK   81  A    between atoms: _186  and  _187
REMARK   82  A    between atoms: _190  and  _192
REMARK   83  A    between atoms: _192  and  _193
REMARK   84  A    between atoms: _192  and  _195
REMARK   85  A    between atoms: _195  and  _196
REMARK   86  A    between atoms: _200  and  _201
REMARK   87  A    between atoms: _206  and  _208
REMARK   88  A    between atoms: _208  and  _209
REMARK   89  A    between atoms: _208  and  _211
REMARK   90  A    between atoms: _211  and  _212
REMARK   91  A    between atoms: _216  and  _217
REMARK   92  A    between atoms: _222  and  _224
REMARK   93  A    between atoms: _224  and  _225
REMARK   94  A    between atoms: _224  and  _227
REMARK   95  A    between atoms: _227  and  _228
REMARK   96  A    between atoms: _234  and  _236
REMARK   97  A    between atoms: _236  and  _237
REMARK   98  A    between atoms: _236  and  _239
REMARK   99  A    between atoms: _239  and  _240
REMARK  100  A    between atoms: _245  and  _247
REMARK  101  A    between atoms: _247  and  _248
REMARK  102  A    between atoms: _247  and  _250
REMARK  103  A    between atoms: _250  and  _251
REMARK  104  A    between atoms: _254  and  _256
REMARK  105  A    between atoms: _256  and  _257
REMARK  106  A    between atoms: _256  and  _259
REMARK  107  A    between atoms: _259  and  _260
REMARK  108  A    between atoms: _263  and  _265
REMARK  109  A    between atoms: _265  and  _266
REMARK  110  A    between atoms: _268  and  _270
REMARK  111  A    between atoms: _270  and  _271
REMARK  112  A    between atoms: _270  and  _273
REMARK  113  A    between atoms: _273  and  _274
REMARK  114  A    between atoms: _274  and  _275
REMARK  115  A    between atoms: _275  and  _276
REMARK  116  A    between atoms: _285  and  _287
REMARK  117  A    between atoms: _287  and  _288
REMARK  118  A    between atoms: _287  and  _290
REMARK  119  A    between atoms: _290  and  _291
REMARK  120  A    between atoms: _296  and  _298
REMARK  121  A    between atoms: _298  and  _299
REMARK  122  A    between atoms: _298  and  _301
REMARK  123  A    between atoms: _301  and  _302
REMARK  124  A    between atoms: _302  and  _303
REMARK  125  A    between atoms: _303  and  _304
REMARK  126  A    between atoms: _313  and  _315
REMARK  127  A    between atoms: _315  and  _316
REMARK  128  A    between atoms: _315  and  _318
REMARK  129  A    between atoms: _318  and  _319
REMARK  130  A    between atoms: _322  and  _324
REMARK  131  A    between atoms: _324  and  _325
REMARK  132  A    between atoms: _324  and  _327
REMARK  133  A    between atoms: _327  and  _328
REMARK  134  A    between atoms: _331  and  _333
REMARK  135  A    between atoms: _333  and  _334
REMARK  136  A    between atoms: _333  and  _336
REMARK  137  A    between atoms: _336  and  _337
REMARK  138  A    between atoms: _340  and  _342
REMARK  139  A    between atoms: _342  and  _343
REMARK  140  A    between atoms: _342  and  _345
REMARK  141  A    between atoms: _345  and  _346
REMARK  142  A    between atoms: _349  and  _351
REMARK  143  A    between atoms: _351  and  _352
REMARK  144  A    between atoms: _354  and  _356
REMARK  145  A    between atoms: _356  and  _357
REMARK  146  A    between atoms: _360  and  _362
REMARK  147  A    between atoms: _362  and  _363
REMARK  148  A    between atoms: _362  and  _365
REMARK  149  A    between atoms: _365  and  _366
REMARK  150  A    between atoms: _369  and  _371
REMARK  151  A    between atoms: _371  and  _372
REMARK  152  A    between atoms: _371  and  _374
REMARK  153  A    between atoms: _374  and  _375
REMARK  154  A    between atoms: _378  and  _380
REMARK  155  A    between atoms: _380  and  _381
REMARK  156  A    between atoms: _380  and  _383
REMARK  157  A    between atoms: _383  and  _384
REMARK  158  A    between atoms: _387  and  _389
REMARK  159  A    between atoms: _389  and  _390
REMARK  160  A    between atoms: _389  and  _392
REMARK  161  A    between atoms: _395  and  _397
REMARK  162  A    between atoms: _397  and  _398
REMARK  163  A    between atoms: _397  and  _400
REMARK  164  A    between atoms: _400  and  _401
REMARK  165  A    between atoms: _404  and  _406
REMARK  166  A    between atoms: _406  and  _407
REMARK  167  A    between atoms: _406  and  _409
REMARK  168  A    between atoms: _409  and  _410
REMARK  169  A    between atoms: _410  and  _411
REMARK  170  A    between atoms: _411  and  _412
REMARK  171  A    between atoms: _412  and  _413
REMARK  172  A    between atoms: _417  and  _419
REMARK  173  A    between atoms: _419  and  _420
REMARK  174  A    between atoms: _419  and  _422
REMARK  175  A    between atoms: _422  and  _423
REMARK  176  A    between atoms: _423  and  _424
REMARK  177  A    between atoms: _426  and  _428
REMARK  178  A    between atoms: _428  and  _429
REMARK  179  A    between atoms: _428  and  _431
REMARK  180  A    between atoms: _431  and  _432
REMARK  181  A    between atoms: _435  and  _437
REMARK  182  A    between atoms: _437  and  _438
REMARK  183  A    between atoms: _440  and  _442
REMARK  184  A    between atoms: _442  and  _443
REMARK  185  A    between atoms: _445  and  _447
REMARK  186  A    between atoms: _447  and  _448
REMARK  187  A    between atoms: _447  and  _450
REMARK  188  A    between atoms: _450  and  _451
REMARK  189  A    between atoms: _454  and  _456
REMARK  190  A    between atoms: _456  and  _457
REMARK  191  A    between atoms: _459  and  _461
REMARK  192  A    between atoms: _461  and  _462
REMARK  193  A    between atoms: _464  and  _466
REMARK  194  A    between atoms: _466  and  _467
REMARK  195  A    between atoms: _466  and  _469
REMARK  196  A    between atoms: _469  and  _470
REMARK  197  A    between atoms: _476  and  _478
REMARK  198  A    between atoms: _478  and  _479
REMARK  199  A    between atoms: _478  and  _481
REMARK  200  A    between atoms: _481  and  _482
REMARK  201  A    between atoms: _485  and  _487
REMARK  202  A    between atoms: _487  and  _488
REMARK  203  A    between atoms: _487  and  _490
REMARK  204  A    between atoms: _490  and  _491
REMARK  205  A    between atoms: _495  and  _496
REMARK  206  A    between atoms: _501  and  _503
REMARK  207  A    between atoms: _503  and  _504
REMARK  208  A    between atoms: _503  and  _506
REMARK  209  A    between atoms: _506  and  _507
REMARK  210  A    between atoms: _511  and  _512
REMARK  211  A    between atoms: _517  and  _519
REMARK  212  A    between atoms: _519  and  _520
REMARK  213  A    between atoms: _519  and  _522
REMARK  214  A    between atoms: _522  and  _523
REMARK  215  A    between atoms: _529  and  _531
REMARK  216  A    between atoms: _531  and  _532
REMARK  217  A    between atoms: _531  and  _534
REMARK  218  A    between atoms: _534  and  _535
REMARK  219  A    between atoms: _540  and  _542
REMARK  220  A    between atoms: _542  and  _543
REMARK  221  A    between atoms: _542  and  _545
REMARK  222  A    between atoms: _545  and  _546
REMARK  223  A    between atoms: _549  and  _551
REMARK  224  A    between atoms: _551  and  _552
REMARK  225  A    between atoms: _551  and  _554
REMARK  226  A    between atoms: _554  and  _555
REMARK  227  A    between atoms: _558  and  _560
REMARK  228  A    between atoms: _560  and  _561
REMARK  229  A    between atoms: _563  and  _565
REMARK  230  A    between atoms: _565  and  _566
REMARK  231  A    between atoms: _565  and  _568
REMARK  232  A    between atoms: _568  and  _569
REMARK  233  A    between atoms: _569  and  _570
REMARK  234  A    between atoms: _570  and  _571
REMARK  235  A    between atoms: _580  and  _582
REMARK  236  A    between atoms: _582  and  _583
REMARK  237  A    between atoms: _582  and  _585
REMARK  238  A    between atoms: _585  and  _586
REMARK                            x       y       z     vdW  Elec       q    Type
REMARK                         _______ _______ _______ _____ _____    ______ ____
ROOT
ATOM      1  NE  ARG A   1     -19.044  15.511  33.961  0.00  0.00    -0.265 N 
ATOM      2  HE  ARG A   1     -18.598  16.063  34.721  0.00  0.00    +0.259 HD
ATOM      3  CZ  ARG A   1     -18.833  14.203  33.902  0.00  0.00    +0.342 C 
ATOM      4  NH2 ARG A   1     -18.210  13.604  34.918  0.00  0.00    -0.292 N 
ATOM      5 HH21 ARG A   1     -17.899  14.162  35.739  0.00  0.00    +0.255 HD
ATOM      6 HH22 ARG A   1     -18.036  12.579  34.890  0.00  0.00    +0.255 HD
ATOM      7  NH1 ARG A   1     -19.259  13.485  32.853  0.00  0.00    -0.292 N 
ATOM      8 HH11 ARG A   1     -19.087  12.460  32.820  0.00  0.00    +0.255 HD
ATOM      9 HH12 ARG A   1     -19.762  13.953  32.072  0.00  0.00    +0.255 HD
ENDROOT
BRANCH   1  10
ATOM     10  CD  ARG A   1     -19.889  16.195  32.982  0.00  0.00    +0.174 C 
BRANCH  10  11
ATOM     11  CG  ARG A   1     -20.028  17.635  33.457  0.00  0.00    +0.045 C 
BRANCH  11  12
ATOM     12  CB  ARG A   1     -20.858  18.446  32.513  0.00  0.00    +0.029 C 
BRANCH  12  13
ATOM     13  CA  ARG A   1     -21.011  19.919  32.908  0.00  0.00    +0.133 C 
BRANCH  13  14
ATOM     14  N   ARG A   1     -21.657  20.034  34.225  0.00  0.00    -0.239 NA
ATOM     15  H   ARG A   1     -21.942  19.180  34.746  0.00  0.00    +0.142 HD
ENDBRANCH  13  14
BRANCH  13  16
ATOM     16  C   ARG A   1     -21.876  20.541  31.838  0.00  0.00    +0.224 C 
ATOM     17  O   ARG A   1     -23.078  20.331  31.837  0.00  0.00    -0.287 OA
ENDBRANCH  13  16
ENDBRANCH  12  13
ENDBRANCH  11  12
ENDBRANCH  10  11
ENDBRANCH   1  10
TORSDOF 6
REMARK  Name = ../refined-set-2016/1bv7/1bv7_pocket.pdb
REMARK  238 active torsions:
REMARK  status: ('A' for Active; 'I' for Inactive)
REMARK    1  A    between atoms: _1  and  _3
REMARK    2  A    between atoms: _3  and  _4
REMARK    3  A    between atoms: _3  and  _6
REMARK    4  A    between atoms: _6  and  _7
REMARK    5  A    between atoms: _7  and  _8
REMARK    6  A    between atoms: _8  and  _9
REMARK    7  A    between atoms: _18  and  _20
REMARK    8  A    between atoms: _20  and  _21
REMARK    9  A    between atoms: _20  and  _23
REMARK   10  A    between atoms: _23  and  _24
REMARK   11  A    between atoms: _27  and  _29
REMARK   12  A    between atoms: _29  and  _30
REMARK   13  A    between atoms: _29  and  _32
REMARK   14  A    between atoms: _32  and  _33
REMARK   15  A    between atoms: _36  and  _38
REMARK   16  A    between atoms: _38  and  _39
REMARK   17  A    between atoms: _38  and  _41
REMARK   18  A    between atoms: _41  and  _42
REMARK   19  A    between atoms: _45  and  _47
REMARK   20  A    between atoms: _47  and  _48
REMARK   21  A    between atoms: _47  and  _50
REMARK   22  A    between atoms: _50  and  _51
REMARK   23  A    between atoms: _54  and  _56
REMARK   24  A    between atoms: _56  and  _57
REMARK   25  A    between atoms: _59  and  _61
REMARK   26  A    between atoms: _61  and  _62
REMARK   27  A    between atoms: _65  and  _67
REMARK   28  A    between atoms: _67  and  _68
REMARK   29  A    between atoms: _67  and  _70
REMARK   30  A    between atoms: _70  and  _71
REMARK   31  A    between atoms: _74  and  _76
REMARK   32  A    between atoms: _76  and  _77
REMARK   33  A    between atoms: _76  and  _79
REMARK   34  A    between atoms: _79  and  _80
REMARK   35  A    between atoms: _83  and  _85
REMARK   36  A    between atoms: _85  and  _86
REMARK   37  A    between atoms: _85  and  _88
REMARK   38  A    between atoms: _88  and  _89
REMARK   39  A    between atoms: _92  and  _94
REMARK   40  A    between atoms: _94  and  _95
REMARK   41  A    between atoms: _94  and  _97
REMARK   42  A    between atoms: _100  and  _102
REMARK   43  A    between atoms: _102  and  _103
REMARK   44  A    between atoms: _102  and  _105
REMARK   45  A    between atoms: _105  and  _106
REMARK   46  A    between atoms: _109  and  _111
REMARK   47  A    between atoms: _111  and  _112
REMARK   48  A    between atoms: _111  and  _114
REMARK   49  A    between atoms: _114  and  _115
REMARK   50  A    between atoms: _115  and  _116
REMARK   51  A    between atoms: _116  and  _117
REMARK   52  A    between atoms: _117  and  _118
REMARK   53  A    between atoms: _122  and  _124
REMARK   54  A    between atoms: _124  and  _125
REMARK   55  A    between atoms: _124  and  _127
REMARK   56  A    between atoms: _127  and  _128
REMARK   57  A    between atoms: _128  and  _129
REMARK   58  A    between atoms: _131  and  _133
REMARK   59  A    between atoms: _133  and  _134
REMARK   60  A    between atoms: _133  and  _136
REMARK   61  A    between atoms: _136  and  _137
REMARK   62  A    between atoms: _140  and  _142
REMARK   63  A    between atoms: _142  and  _143
REMARK   64  A    between atoms: _145  and  _147
REMARK   65  A    between atoms: _147  and  _148
REMARK   66  A    between atoms: _150  and  _152
REMARK   67  A    between atoms: _152  and  _153
REMARK   68  A    between atoms: _152  and  _155
REMARK   69  A    between atoms: _155  and  _156
REMARK   70  A    between atoms: _159  and  _161
REMARK   71  A    between atoms: _161  and  _162
REMARK   72  A    between atoms: _164  and  _166
REMARK   73  A    between atoms: _166  and  _167
REMARK   74  A    between atoms: _169  and  _171
REMARK   75  A    between atoms: _171  and  _172
REMARK   76  A    between atoms: _171  and  _174
REMARK   77  A    between atoms: _174  and  _175
REMARK   78  A    between atoms: _181  and  _183
REMARK   79  A    between atoms: _183  and  _184
REMARK   80  A    between atoms: _183  and  _186
REMARK   81  A    between atoms: _186  and  _187
REMARK   82  A    between atoms: _190  and  _192
REMARK   83  A    between atoms: _192  and  _193
REMARK   84  A    between atoms: _192  and  _195
REMARK   85  A    between atoms: _195  and  _196
REMARK   86  A    between atoms: _200  and  _201
REMARK   87  A    between atoms: _206  and  _208
REMARK   88  A    between atoms: _208  and  _209
REMARK   89  A    between atoms: _208  and  _211
REMARK   90  A    between atoms: _211  and  _212
REMARK   91  A    between atoms: _216  and  _217
REMARK   92  A    between atoms: _222  and  _224
REMARK   93  A    between atoms: _224  and  _225
REMARK   94  A    between atoms: _224  and  _227
REMARK   95  A    between atoms: _227  and  _228
REMARK   96  A    between atoms: _234  and  _236
REMARK   97  A    between atoms: _236  and  _237
REMARK   98  A    between atoms: _236  and  _239
REMARK   99  A    between atoms: _239  and  _240
REMARK  100  A    between atoms: _245  and  _247
REMARK  101  A    between atoms: _247  and  _248
REMARK  102  A    between atoms: _247  and  _250
REMARK  103  A    between atoms: _250  and  _251
REMARK  104  A    between atoms: _254  and  _256
REMARK  105  A    between atoms: _256  and  _257
REMARK  106  A    between atoms: _256  and  _259
REMARK  107  A    between atoms: _259  and  _260
REMARK  108  A    between atoms: _263  and  _265
REMARK  109  A    between atoms: _265  and  _266
REMARK  110  A    between atoms: _268  and  _270
REMARK  111  A    between atoms: _270  and  _271
REMARK  112  A    between atoms: _270  and  _273
REMARK  113  A    between atoms: _273  and  _274
REMARK  114  A    between atoms: _274  and  _275
REMARK  115  A    between atoms: _275  and  _276
REMARK  116  A    between atoms: _285  and  _287
REMARK  117  A    between atoms: _287  and  _288
REMARK  118  A    between atoms: _287  and  _290
REMARK  119  A    between atoms: _290  and  _291
REMARK  120  A    between atoms: _296  and  _298
REMARK  121  A    between atoms: _298  and  _299
REMARK  122  A    between atoms: _298  and  _301
REMARK  123  A    between atoms: _301  and  _302
REMARK  124  A    between atoms: _302  and  _303
REMARK  125  A    between atoms: _303  and  _304
REMARK  126  A    between atoms: _313  and  _315
REMARK  127  A    between atoms: _315  and  _316
REMARK  128  A    between atoms: _315  and  _318
REMARK  129  A    between atoms: _318  and  _319
REMARK  130  A    between atoms: _322  and  _324
REMARK  131  A    between atoms: _324  and  _325
REMARK  132  A    between atoms: _324  and  _327
REMARK  133  A    between atoms: _327  and  _328
REMARK  134  A    between atoms: _331  and  _333
REMARK  135  A    between atoms: _333  and  _334
REMARK  136  A    between atoms: _333  and  _336
REMARK  137  A    between atoms: _336  and  _337
REMARK  138  A    between atoms: _340  and  _342
REMARK  139  A    between atoms: _342  and  _343
REMARK  140  A    between atoms: _342  and  _345
REMARK  141  A    between atoms: _345  and  _346
REMARK  142  A    between atoms: _349  and  _351
REMARK  143  A    between atoms: _351  and  _352
REMARK  144  A    between atoms: _354  and  _356
REMARK  145  A    between atoms: _356  and  _357
REMARK  146  A    between atoms: _360  and  _362
REMARK  147  A    between atoms: _362  and  _363
REMARK  148  A    between atoms: _362  and  _365
REMARK  149  A    between atoms: _365  and  _366
REMARK  150  A    between atoms: _369  and  _371
REMARK  151  A    between atoms: _371  and  _372
REMARK  152  A    between atoms: _371  and  _374
REMARK  153  A    between atoms: _374  and  _375
REMARK  154  A    between atoms: _378  and  _380
REMARK  155  A    between atoms: _380  and  _381
REMARK  156  A    between atoms: _380  and  _383
REMARK  157  A    between atoms: _383  and  _384
REMARK  158  A    between atoms: _387  and  _389
REMARK  159  A    between atoms: _389  and  _390
REMARK  160  A    between atoms: _389  and  _392
REMARK  161  A    between atoms: _395  and  _397
REMARK  162  A    between atoms: _397  and  _398
REMARK  163  A    between atoms: _397  and  _400
REMARK  164  A    between atoms: _400  and  _401
REMARK  165  A    between atoms: _404  and  _406
REMARK  166  A    between atoms: _406  and  _407
REMARK  167  A    between atoms: _406  and  _409
REMARK  168  A    between atoms: _409  and  _410
REMARK  169  A    between atoms: _410  and  _411
REMARK  170  A    between atoms: _411  and  _412
REMARK  171  A    between atoms: _412  and  _413
REMARK  172  A    between atoms: _417  and  _419
REMARK  173  A    between atoms: _419  and  _420
REMARK  174  A    between atoms: _419  and  _422
REMARK  175  A    between atoms: _422  and  _423
REMARK  176  A    between atoms: _423  and  _424
REMARK  177  A    between atoms: _426  and  _428
REMARK  178  A    between atoms: _428  and  _429
REMARK  179  A    between atoms: _428  and  _431
REMARK  180  A    between atoms: _431  and  _432
REMARK  181  A    between atoms: _435  and  _437
REMARK  182  A    between atoms: _437  and  _438
REMARK  183  A    between atoms: _440  and  _442
REMARK  184  A    between atoms: _442  and  _443
REMARK  185  A    between atoms: _445  and  _447
REMARK  186  A    between atoms: _447  and  _448
REMARK  187  A    between atoms: _447  and  _450
REMARK  188  A    between atoms: _450  and  _451
REMARK  189  A    between atoms: _454  and  _456
REMARK  190  A    between atoms: _456  and  _457
REMARK  191  A    between atoms: _459  and  _461
REMARK  192  A    between atoms: _461  and  _462
REMARK  193  A    between atoms: _464  and  _466
REMARK  194  A    between atoms: _466  and  _467
REMARK  195  A    between atoms: _466  and  _469
REMARK  196  A    between atoms: _469  and  _470
REMARK  197  A    between atoms: _476  and  _478
REMARK  198  A    between atoms: _478  and  _479
REMARK  199  A    between atoms: _478  and  _481
REMARK  200  A    between atoms: _481  and  _482
REMARK  201  A    between atoms: _485  and  _487
REMARK  202  A    between atoms: _487  and  _488
REMARK  203  A    between atoms: _487  and  _490
REMARK  204  A    between atoms: _490  and  _491
REMARK  205  A    between atoms: _495  and  _496
REMARK  206  A    between atoms: _501  and  _503
REMARK  207  A    between atoms: _503  and  _504
REMARK  208  A    between atoms: _503  and  _506
REMARK  209  A    between atoms: _506  and  _507
REMARK  210  A    between atoms: _511  and  _512
REMARK  211  A    between atoms: _517  and  _519
REMARK  212  A    between atoms: _519  and  _520
REMARK  213  A    between atoms: _519  and  _522
REMARK  214  A    between atoms: _522  and  _523
REMARK  215  A    between atoms: _529  and  _531
REMARK  216  A    between atoms: _531  and  _532
REMARK  217  A    between atoms: _531  and  _534
REMARK  218  A    between atoms: _534  and  _535
REMARK  219  A    between atoms: _540  and  _542
REMARK  220  A    between atoms: _542  and  _543
REMARK  221  A    between atoms: _542  and  _545
REMARK  222  A    between atoms: _545  and  _546
REMARK  223  A    between atoms: _549  and  _551
REMARK  224  A    between atoms: _551  and  _552
REMARK  225  A    between atoms: _551  and  _554
REMARK  226  A    between atoms: _554  and  _555
REMARK  227  A    between atoms: _558  and  _560
REMARK  228  A    between atoms: _560  and  _561
REMARK  229  A    between atoms: _563  and  _565
REMARK  230  A    between atoms: _565  and  _566
REMARK  231  A    between atoms: _565  and  _568
REMARK  232  A    between atoms: _568  and  _569
REMARK  233  A    between atoms: _569  and  _570
REMARK  234  A    between atoms: _570  and  _571
REMARK  235  A    between atoms: _580  and  _582
REMARK  236  A    between atoms: _582  and  _583
REMARK  237  A    between atoms: _582  and  _585
REMARK  238  A    between atoms: _585  and  _586
REMARK                            x       y       z     vdW  Elec       q    Type
REMARK                         _______ _______ _______ _____ _____    ______ ____
ROOT
ATOM      1  C   ALA A   6     -10.272  21.086  21.649  0.00  0.00    +0.241 C 
ATOM      2  O   ALA A   6     -11.180  21.782  21.239  0.00  0.00    -0.273 OA
ATOM      3  N   ASP A   7      -9.160  20.890  20.955  0.00  0.00    -0.297 N 
ATOM      4  H   ASP A   7      -8.394  20.281  21.306  0.00  0.00    +0.150 HD
ENDROOT
BRANCH   1   5
ATOM      5  CA  ALA A   6     -10.330  20.436  22.988  0.00  0.00    +0.149 C 
ATOM      6  CB  ALA A   6     -11.542  19.501  23.026  0.00  0.00    +0.031 C 
BRANCH   5   9
ATOM      7  C   GLY A   5      -9.466  21.868  24.776  0.00  0.00    +0.243 C 
ATOM      8  O   GLY A   5      -8.323  21.468  24.631  0.00  0.00    -0.273 OA
ATOM      9  N   ALA A   6     -10.478  21.489  23.990  0.00  0.00    -0.297 N 
ATOM     10  H   ALA A   6     -11.400  21.958  24.095  0.00  0.00    +0.150 HD
BRANCH   7  11
ATOM     11  CA  GLY A   5      -9.847  22.760  25.922  0.00  0.00    +0.176 C 
BRANCH  11  13
ATOM     12  C   THR A   4     -11.521  24.312  25.264  0.00  0.00    +0.243 C 
ATOM     13  N   GLY A   5     -11.235  23.203  25.939  0.00  0.00    -0.295 N 
ATOM     14  H   GLY A   5     -11.968  22.676  26.455  0.00  0.00    +0.150 HD
ATOM     15  O   THR A   4     -10.680  24.928  24.629  0.00  0.00    -0.273 OA
BRANCH  12  16
ATOM     16  CA  THR A   4     -12.973  24.737  25.348  0.00  0.00    +0.176 C 
BRANCH  16  18
ATOM     17  C   ASP A   3     -14.205  22.720  25.060  0.00  0.00    +0.241 C 
ATOM     18  N   THR A   4     -13.913  23.737  25.839  0.00  0.00    -0.295 N 
ATOM     19  H   THR A   4     -14.342  23.826  26.782  0.00  0.00    +0.150 HD
ATOM     20  O   ASP A   3     -13.629  22.540  24.008  0.00  0.00    -0.273 OA
BRANCH  17  21
ATOM     21  CA  ASP A   3     -15.191  21.737  25.624  0.00  0.00    +0.160 C 
BRANCH  21  24
ATOM     22  C   LEU A   2     -17.565  22.048  25.810  0.00  0.00    +0.241 C 
ATOM     23  O   LEU A   2     -17.506  22.342  26.993  0.00  0.00    -0.273 OA
ATOM     24  N   ASP A   3     -16.502  21.866  25.033  0.00  0.00    -0.297 N 
ATOM     25  H   ASP A   3     -16.615  21.817  24.000  0.00  0.00    +0.150 HD
BRANCH  22  26
ATOM     26  CA  LEU A   2     -18.917  21.826  25.181  0.00  0.00    +0.149 C 
BRANCH  26  28
ATOM     27  C   LEU A   1     -19.185  19.438  25.361  0.00  0.00    +0.238 C 
ATOM     28  N   LEU A   2     -19.519  20.640  25.790  0.00  0.00    -0.297 N 
ATOM     29  H   LEU A   2     -20.210  20.744  26.560  0.00  0.00    +0.150 HD
ATOM     30  O   LEU A   1     -18.451  19.249  24.391  0.00  0.00    -0.274 OA
BRANCH  27  31
ATOM     31  CA  LEU A   1     -19.842  18.295  26.131  0.00  0.00    +0.145 C 
BRANCH  31  32
ATOM     32  N   LEU A   1     -20.456  17.353  25.199  0.00  0.00    -0.238 NA
ATOM     33  H   LEU A   1     -19.848  16.657  24.722  0.00  0.00    +0.142 HD
ENDBRANCH  31  32
BRANCH  31  34
ATOM     34  CB  LEU A   1     -18.786  17.479  26.851  0.00  0.00    +0.026 C 
BRANCH  34  35
ATOM     35  CG  LEU A   1     -17.973  18.170  27.938  0.00  0.00    +0.002 C 
ATOM     36  CD2 LEU A   1     -18.754  18.273  29.244  0.00  0.00    +0.000 C 
ATOM     37  CD1 LEU A   1     -16.687  17.359  28.164  0.00  0.00    +0.000 C 
ENDBRANCH  34  35
ENDBRANCH  31  34
ENDBRANCH  27  31
ENDBRANCH  26  28
BRANCH  26  38
ATOM     38  CB  LEU A   2     -19.801  23.016  25.544  0.00  0.00    +0.029 C 
BRANCH  38  39
ATOM     39  CG  LEU A   2     -20.768  23.516  24.485  0.00  0.00    +0.002 C 
ATOM     40  CD2 LEU A   2     -21.845  24.294  25.187  0.00  0.00    +0.000 C 
ATOM     41  CD1 LEU A   2     -21.385  22.433  23.676  0.00  0.00    +0.000 C 
ENDBRANCH  38  39
ENDBRANCH  26  38
ENDBRANCH  22  26
ENDBRANCH  21  24
BRANCH  21  42
ATOM     42  CB  ASP A   3     -14.705  20.320  25.366  0.00  0.00    +0.143 C 
BRANCH  42  43
ATOM     43  CG  ASP A   3     -13.495  19.961  26.188  0.00  0.00    +0.367 C 
ATOM     44  OD2 ASP A   3     -12.755  20.849  26.609  0.00  0.00    -0.246 OA
ATOM     45  OD1 ASP A   3     -13.294  18.775  26.420  0.00  0.00    -0.246 OA
ENDBRANCH  42  43
ENDBRANCH  21  42
ENDBRANCH  17  21
ENDBRANCH  16  18
BRANCH  16  46
ATOM     46  CB  THR A   4     -13.199  26.021  26.177  0.00  0.00    +0.137 C 
ATOM     47  CG2 THR A   4     -14.632  26.523  25.951  0.00  0.00    +0.034 C 
BRANCH  46  48
ATOM     48  OG1 THR A   4     -13.004  25.813  27.592  0.00  0.00    -0.382 OA
ATOM     49  HG1 THR A   4     -12.077  25.506  27.755  0.00  0.00    +0.210 HD
ENDBRANCH  46  48
ENDBRANCH  16  46
ENDBRANCH  12  16
ENDBRANCH  11  13
ENDBRANCH   7  11
ENDBRANCH   5   9
ENDBRANCH   1   5
BRANCH   3  50
ATOM     50  CA  ASP A   7      -9.071  21.580  19.666  0.00  0.00    +0.160 C 
BRANCH  50  51
ATOM     51  C   ASP A   7      -9.967  21.005  18.635  0.00  0.00    +0.241 C 
ATOM     52  N   ASP A   8     -10.297  19.716  18.828  0.00  0.00    -0.297 N 
ATOM     53  H   ASP A   8     -10.042  19.286  19.740  0.00  0.00    +0.150 HD
ATOM     54  O   ASP A   7     -10.310  21.703  17.707  0.00  0.00    -0.273 OA
BRANCH  52  55
ATOM     55  CA  ASP A   8     -10.986  18.874  17.855  0.00  0.00    +0.160 C 
BRANCH  55  56
ATOM     56  C   ASP A   8     -12.212  18.235  18.459  0.00  0.00    +0.241 C 
ATOM     57  O   ASP A   8     -12.246  17.960  19.640  0.00  0.00    -0.273 OA
ATOM     58  N   THR A   9     -13.217  18.023  17.642  0.00  0.00    -0.295 N 
ATOM     59  H   THR A   9     -13.132  18.298  16.643  0.00  0.00    +0.150 HD
BRANCH  58  60
ATOM     60  CA  THR A   9     -14.458  17.404  18.117  0.00  0.00    +0.176 C 
BRANCH  60  61
ATOM     61  C   THR A   9     -14.355  15.917  17.986  0.00  0.00    +0.243 C 
ATOM     62  N   VAL A  10     -14.633  15.185  19.044  0.00  0.00    -0.297 N 
ATOM     63  H   VAL A  10     -14.979  15.645  19.910  0.00  0.00    +0.150 HD
ATOM     64  O   THR A   9     -14.013  15.441  16.920  0.00  0.00    -0.273 OA
BRANCH  62  65
ATOM     65  CA  VAL A  10     -14.462  13.741  19.018  0.00  0.00    +0.149 C 
BRANCH  65  66
ATOM     66  C   VAL A  10     -15.705  13.094  19.538  0.00  0.00    +0.241 C 
ATOM     67  O   VAL A  10     -16.114  13.361  20.652  0.00  0.00    -0.273 OA
ATOM     68  N   LEU A  11     -16.298  12.255  18.710  0.00  0.00    -0.298 N 
ATOM     69  H   LEU A  11     -15.868  12.048  17.786  0.00  0.00    +0.150 HD
BRANCH  68  70
ATOM     70  CA  LEU A  11     -17.535  11.627  19.081  0.00  0.00    +0.137 C 
BRANCH  70  71
ATOM     71  C   LEU A  11     -17.306  10.152  19.212  0.00  0.00    +0.227 C 
ATOM     72  O   LEU A  11     -16.417   9.557  18.616  0.00  0.00    -0.286 OA
ENDBRANCH  70  71
BRANCH  70  73
ATOM     73  CB  LEU A  11     -18.547  11.907  17.969  0.00  0.00    +0.028 C 
BRANCH  73  74
ATOM     74  CG  LEU A  11     -18.850  13.373  17.592  0.00  0.00    +0.002 C 
ATOM     75  CD2 LEU A  11     -19.523  14.180  18.699  0.00  0.00    +0.000 C 
ATOM     76  CD1 LEU A  11     -19.726  13.373  16.353  0.00  0.00    +0.000 C 
ENDBRANCH  73  74
ENDBRANCH  70  73
ENDBRANCH  68  70
ENDBRANCH  65  66
BRANCH  65  77
ATOM     77  CB  VAL A  10     -13.354  13.302  19.962  0.00  0.00    +0.027 C 
ATOM     78  CG2 VAL A  10     -12.126  14.195  19.840  0.00  0.00    +0.002 C 
ATOM     79  CG1 VAL A  10     -12.987  11.838  19.714  0.00  0.00    +0.002 C 
ENDBRANCH  65  77
ENDBRANCH  62  65
ENDBRANCH  60  61
BRANCH  60  80
ATOM     80  CB  THR A   9     -15.573  17.942  17.220  0.00  0.00    +0.137 C 
ATOM     81  CG2 THR A   9     -16.937  17.234  17.346  0.00  0.00    +0.034 C 
BRANCH  80  82
ATOM     82  OG1 THR A   9     -15.669  19.350  17.462  0.00  0.00    -0.382 OA
ATOM     83  HG1 THR A   9     -14.805  19.781  17.242  0.00  0.00    +0.210 HD
ENDBRANCH  80  82
ENDBRANCH  60  80
ENDBRANCH  58  60
ENDBRANCH  55  56
BRANCH  55  84
ATOM     84  CB  ASP A   8     -10.036  17.750  17.493  0.00  0.00    +0.143 C 
BRANCH  84  85
ATOM     85  CG  ASP A   8      -9.126  18.089  16.342  0.00  0.00    +0.367 C 
ATOM     86  OD2 ASP A   8      -8.181  17.333  16.121  0.00  0.00    -0.246 OA
ATOM     87  OD1 ASP A   8      -9.359  19.082  15.648  0.00  0.00    -0.246 OA
ENDBRANCH  84  85
ENDBRANCH  55  84
ENDBRANCH  52  55
ENDBRANCH  50  51
BRANCH  50  88
ATOM     88  CB  ASP A   7      -7.689  21.532  19.019  0.00  0.00    +0.143 C 
BRANCH  88  89
ATOM     89  CG  ASP A   7      -6.664  21.844  20.072  0.00  0.00    +0.367 C 
ATOM     90  OD2 ASP A   7      -6.048  20.904  20.545  0.00  0.00    -0.246 OA
ATOM     91  OD1 ASP A   7      -6.497  23.000  20.441  0.00  0.00    -0.246 OA
ENDBRANCH  88  89
ENDBRANCH  50  88
ENDBRANCH   3  50
TORSDOF 39
REMARK  Name = ../refined-set-2016/1bv7/1bv7_pocket.pdb
REMARK  238 active torsions:
REMARK  status: ('A' for Active; 'I' for Inactive)
REMARK    1  A    between atoms: _1  and  _3
REMARK    2  A    between atoms: _3  and  _4
REMARK    3  A    between atoms: _3  and  _6
REMARK    4  A    between atoms: _6  and  _7
REMARK    5  A    between atoms: _7  and  _8
REMARK    6  A    between atoms: _8  and  _9
REMARK    7  A    between atoms: _18  and  _20
REMARK    8  A    between atoms: _20  and  _21
REMARK    9  A    between atoms: _20  and  _23
REMARK   10  A    between atoms: _23  and  _24
REMARK   11  A    between atoms: _27  and  _29
REMARK   12  A    between atoms: _29  and  _30
REMARK   13  A    between atoms: _29  and  _32
REMARK   14  A    between atoms: _32  and  _33
REMARK   15  A    between atoms: _36  and  _38
REMARK   16  A    between atoms: _38  and  _39
REMARK   17  A    between atoms: _38  and  _41
REMARK   18  A    between atoms: _41  and  _42
REMARK   19  A    between atoms: _45  and  _47
REMARK   20  A    between atoms: _47  and  _48
REMARK   21  A    between atoms: _47  and  _50
REMARK   22  A    between atoms: _50  and  _51
REMARK   23  A    between atoms: _54  and  _56
REMARK   24  A    between atoms: _56  and  _57
REMARK   25  A    between atoms: _59  and  _61
REMARK   26  A    between atoms: _61  and  _62
REMARK   27  A    between atoms: _65  and  _67
REMARK   28  A    between atoms: _67  and  _68
REMARK   29  A    between atoms: _67  and  _70
REMARK   30  A    between atoms: _70  and  _71
REMARK   31  A    between atoms: _74  and  _76
REMARK   32  A    between atoms: _76  and  _77
REMARK   33  A    between atoms: _76  and  _79
REMARK   34  A    between atoms: _79  and  _80
REMARK   35  A    between atoms: _83  and  _85
REMARK   36  A    between atoms: _85  and  _86
REMARK   37  A    between atoms: _85  and  _88
REMARK   38  A    between atoms: _88  and  _89
REMARK   39  A    between atoms: _92  and  _94
REMARK   40  A    between atoms: _94  and  _95
REMARK   41  A    between atoms: _94  and  _97
REMARK   42  A    between atoms: _100  and  _102
REMARK   43  A    between atoms: _102  and  _103
REMARK   44  A    between atoms: _102  and  _105
REMARK   45  A    between atoms: _105  and  _106
REMARK   46  A    between atoms: _109  and  _111
REMARK   47  A    between atoms: _111  and  _112
REMARK   48  A    between atoms: _111  and  _114
REMARK   49  A    between atoms: _114  and  _115
REMARK   50  A    between atoms: _115  and  _116
REMARK   51  A    between atoms: _116  and  _117
REMARK   52  A    between atoms: _117  and  _118
REMARK   53  A    between atoms: _122  and  _124
REMARK   54  A    between atoms: _124  and  _125
REMARK   55  A    between atoms: _124  and  _127
REMARK   56  A    between atoms: _127  and  _128
REMARK   57  A    between atoms: _128  and  _129
REMARK   58  A    between atoms: _131  and  _133
REMARK   59  A    between atoms: _133  and  _134
REMARK   60  A    between atoms: _133  and  _136
REMARK   61  A    between atoms: _136  and  _137
REMARK   62  A    between atoms: _140  and  _142
REMARK   63  A    between atoms: _142  and  _143
REMARK   64  A    between atoms: _145  and  _147
REMARK   65  A    between atoms: _147  and  _148
REMARK   66  A    between atoms: _150  and  _152
REMARK   67  A    between atoms: _152  and  _153
REMARK   68  A    between atoms: _152  and  _155
REMARK   69  A    between atoms: _155  and  _156
REMARK   70  A    between atoms: _159  and  _161
REMARK   71  A    between atoms: _161  and  _162
REMARK   72  A    between atoms: _164  and  _166
REMARK   73  A    between atoms: _166  and  _167
REMARK   74  A    between atoms: _169  and  _171
REMARK   75  A    between atoms: _171  and  _172
REMARK   76  A    between atoms: _171  and  _174
REMARK   77  A    between atoms: _174  and  _175
REMARK   78  A    between atoms: _181  and  _183
REMARK   79  A    between atoms: _183  and  _184
REMARK   80  A    between atoms: _183  and  _186
REMARK   81  A    between atoms: _186  and  _187
REMARK   82  A    between atoms: _190  and  _192
REMARK   83  A    between atoms: _192  and  _193
REMARK   84  A    between atoms: _192  and  _195
REMARK   85  A    between atoms: _195  and  _196
REMARK   86  A    between atoms: _200  and  _201
REMARK   87  A    between atoms: _206  and  _208
REMARK   88  A    between atoms: _208  and  _209
REMARK   89  A    between atoms: _208  and  _211
REMARK   90  A    between atoms: _211  and  _212
REMARK   91  A    between atoms: _216  and  _217
REMARK   92  A    between atoms: _222  and  _224
REMARK   93  A    between atoms: _224  and  _225
REMARK   94  A    between atoms: _224  and  _227
REMARK   95  A    between atoms: _227  and  _228
REMARK   96  A    between atoms: _234  and  _236
REMARK   97  A    between atoms: _236  and  _237
REMARK   98  A    between atoms: _236  and  _239
REMARK   99  A    between atoms: _239  and  _240
REMARK  100  A    between atoms: _245  and  _247
REMARK  101  A    between atoms: _247  and  _248
REMARK  102  A    between atoms: _247  and  _250
REMARK  103  A    between atoms: _250  and  _251
REMARK  104  A    between atoms: _254  and  _256
REMARK  105  A    between atoms: _256  and  _257
REMARK  106  A    between atoms: _256  and  _259
REMARK  107  A    between atoms: _259  and  _260
REMARK  108  A    between atoms: _263  and  _265
REMARK  109  A    between atoms: _265  and  _266
REMARK  110  A    between atoms: _268  and  _270
REMARK  111  A    between atoms: _270  and  _271
REMARK  112  A    between atoms: _270  and  _273
REMARK  113  A    between atoms: _273  and  _274
REMARK  114  A    between atoms: _274  and  _275
REMARK  115  A    between atoms: _275  and  _276
REMARK  116  A    between atoms: _285  and  _287
REMARK  117  A    between atoms: _287  and  _288
REMARK  118  A    between atoms: _287  and  _290
REMARK  119  A    between atoms: _290  and  _291
REMARK  120  A    between atoms: _296  and  _298
REMARK  121  A    between atoms: _298  and  _299
REMARK  122  A    between atoms: _298  and  _301
REMARK  123  A    between atoms: _301  and  _302
REMARK  124  A    between atoms: _302  and  _303
REMARK  125  A    between atoms: _303  and  _304
REMARK  126  A    between atoms: _313  and  _315
REMARK  127  A    between atoms: _315  and  _316
REMARK  128  A    between atoms: _315  and  _318
REMARK  129  A    between atoms: _318  and  _319
REMARK  130  A    between atoms: _322  and  _324
REMARK  131  A    between atoms: _324  and  _325
REMARK  132  A    between atoms: _324  and  _327
REMARK  133  A    between atoms: _327  and  _328
REMARK  134  A    between atoms: _331  and  _333
REMARK  135  A    between atoms: _333  and  _334
REMARK  136  A    between atoms: _333  and  _336
REMARK  137  A    between atoms: _336  and  _337
REMARK  138  A    between atoms: _340  and  _342
REMARK  139  A    between atoms: _342  and  _343
REMARK  140  A    between atoms: _342  and  _345
REMARK  141  A    between atoms: _345  and  _346
REMARK  142  A    between atoms: _349  and  _351
REMARK  143  A    between atoms: _351  and  _352
REMARK  144  A    between atoms: _354  and  _356
REMARK  145  A    between atoms: _356  and  _357
REMARK  146  A    between atoms: _360  and  _362
REMARK  147  A    between atoms: _362  and  _363
REMARK  148  A    between atoms: _362  and  _365
REMARK  149  A    between atoms: _365  and  _366
REMARK  150  A    between atoms: _369  and  _371
REMARK  151  A    between atoms: _371  and  _372
REMARK  152  A    between atoms: _371  and  _374
REMARK  153  A    between atoms: _374  and  _375
REMARK  154  A    between atoms: _378  and  _380
REMARK  155  A    between atoms: _380  and  _381
REMARK  156  A    between atoms: _380  and  _383
REMARK  157  A    between atoms: _383  and  _384
REMARK  158  A    between atoms: _387  and  _389
REMARK  159  A    between atoms: _389  and  _390
REMARK  160  A    between atoms: _389  and  _392
REMARK  161  A    between atoms: _395  and  _397
REMARK  162  A    between atoms: _397  and  _398
REMARK  163  A    between atoms: _397  and  _400
REMARK  164  A    between atoms: _400  and  _401
REMARK  165  A    between atoms: _404  and  _406
REMARK  166  A    between atoms: _406  and  _407
REMARK  167  A    between atoms: _406  and  _409
REMARK  168  A    between atoms: _409  and  _410
REMARK  169  A    between atoms: _410  and  _411
REMARK  170  A    between atoms: _411  and  _412
REMARK  171  A    between atoms: _412  and  _413
REMARK  172  A    between atoms: _417  and  _419
REMARK  173  A    between atoms: _419  and  _420
REMARK  174  A    between atoms: _419  and  _422
REMARK  175  A    between atoms: _422  and  _423
REMARK  176  A    between atoms: _423  and  _424
REMARK  177  A    between atoms: _426  and  _428
REMARK  178  A    between atoms: _428  and  _429
REMARK  179  A    between atoms: _428  and  _431
REMARK  180  A    between atoms: _431  and  _432
REMARK  181  A    between atoms: _435  and  _437
REMARK  182  A    between atoms: _437  and  _438
REMARK  183  A    between atoms: _440  and  _442
REMARK  184  A    between atoms: _442  and  _443
REMARK  185  A    between atoms: _445  and  _447
REMARK  186  A    between atoms: _447  and  _448
REMARK  187  A    between atoms: _447  and  _450
REMARK  188  A    between atoms: _450  and  _451
REMARK  189  A    between atoms: _454  and  _456
REMARK  190  A    between atoms: _456  and  _457
REMARK  191  A    between atoms: _459  and  _461
REMARK  192  A    between atoms: _461  and  _462
REMARK  193  A    between atoms: _464  and  _466
REMARK  194  A    between atoms: _466  and  _467
REMARK  195  A    between atoms: _466  and  _469
REMARK  196  A    between atoms: _469  and  _470
REMARK  197  A    between atoms: _476  and  _478
REMARK  198  A    between atoms: _478  and  _479
REMARK  199  A    between atoms: _478  and  _481
REMARK  200  A    between atoms: _481  and  _482
REMARK  201  A    between atoms: _485  and  _487
REMARK  202  A    between atoms: _487  and  _488
REMARK  203  A    between atoms: _487  and  _490
REMARK  204  A    between atoms: _490  and  _491
REMARK  205  A    between atoms: _495  and  _496
REMARK  206  A    between atoms: _501  and  _503
REMARK  207  A    between atoms: _503  and  _504
REMARK  208  A    between atoms: _503  and  _506
REMARK  209  A    between atoms: _506  and  _507
REMARK  210  A    between atoms: _511  and  _512
REMARK  211  A    between atoms: _517  and  _519
REMARK  212  A    between atoms: _519  and  _520
REMARK  213  A    between atoms: _519  and  _522
REMARK  214  A    between atoms: _522  and  _523
REMARK  215  A    between atoms: _529  and  _531
REMARK  216  A    between atoms: _531  and  _532
REMARK  217  A    between atoms: _531  and  _534
REMARK  218  A    between atoms: _534  and  _535
REMARK  219  A    between atoms: _540  and  _542
REMARK  220  A    between atoms: _542  and  _543
REMARK  221  A    between atoms: _542  and  _545
REMARK  222  A    between atoms: _545  and  _546
REMARK  223  A    between atoms: _549  and  _551
REMARK  224  A    between atoms: _551  and  _552
REMARK  225  A    between atoms: _551  and  _554
REMARK  226  A    between atoms: _554  and  _555
REMARK  227  A    between atoms: _558  and  _560
REMARK  228  A    between atoms: _560  and  _561
REMARK  229  A    between atoms: _563  and  _565
REMARK  230  A    between atoms: _565  and  _566
REMARK  231  A    between atoms: _565  and  _568
REMARK  232  A    between atoms: _568  and  _569
REMARK  233  A    between atoms: _569  and  _570
REMARK  234  A    between atoms: _570  and  _571
REMARK  235  A    between atoms: _580  and  _582
REMARK  236  A    between atoms: _582  and  _583
REMARK  237  A    between atoms: _582  and  _585
REMARK  238  A    between atoms: _585  and  _586
REMARK                            x       y       z     vdW  Elec       q    Type
REMARK                         _______ _______ _______ _____ _____    ______ ____
ROOT
ATOM      1  C   GLY A   5      -4.704  13.076  26.612  0.00  0.00    +0.243 C 
ATOM      2  N   ILE A   6      -5.425  13.197  27.706  0.00  0.00    -0.297 N 
ATOM      3  H   ILE A   6      -6.463  13.259  27.687  0.00  0.00    +0.150 HD
ATOM      4  O   GLY A   5      -3.504  12.838  26.615  0.00  0.00    -0.273 OA
ENDROOT
BRANCH   2   5
ATOM      5  CA  ILE A   6      -4.669  13.237  28.931  0.00  0.00    +0.149 C 
BRANCH   5   6
ATOM      6  C   ILE A   6      -4.057  11.933  29.376  0.00  0.00    +0.241 C 
ATOM      7  O   ILE A   6      -3.070  11.907  30.085  0.00  0.00    -0.273 OA
ATOM      8  N   GLY A   7      -4.672  10.831  28.951  0.00  0.00    -0.295 N 
ATOM      9  H   GLY A   7      -5.535  10.852  28.370  0.00  0.00    +0.150 HD
BRANCH   8  10
ATOM     10  CA  GLY A   7      -4.027   9.592  29.373  0.00  0.00    +0.176 C 
BRANCH  10  11
ATOM     11  C   GLY A   7      -3.240   8.966  28.236  0.00  0.00    +0.243 C 
ATOM     12  O   GLY A   7      -2.807   7.820  28.287  0.00  0.00    -0.273 OA
ATOM     13  N   GLY A   8      -3.093   9.767  27.182  0.00  0.00    -0.295 N 
ATOM     14  H   GLY A   8      -3.534  10.709  27.165  0.00  0.00    +0.150 HD
BRANCH  13  15
ATOM     15  CA  GLY A   8      -2.306   9.297  26.061  0.00  0.00    +0.176 C 
BRANCH  15  16
ATOM     16  C   GLY A   8      -3.111   9.447  24.832  0.00  0.00    +0.243 C 
ATOM     17  O   GLY A   8      -3.999  10.268  24.772  0.00  0.00    -0.273 OA
ATOM     18  N   PHE A   9      -2.774   8.646  23.850  0.00  0.00    -0.297 N 
ATOM     19  H   PHE A   9      -2.167   7.823  24.039  0.00  0.00    +0.150 HD
BRANCH  18  20
ATOM     20  CA  PHE A   9      -3.245   8.902  22.497  0.00  0.00    +0.153 C 
BRANCH  20  21
ATOM     21  C   PHE A   9      -4.194   7.848  21.992  0.00  0.00    +0.241 C 
ATOM     22  O   PHE A   9      -4.098   6.671  22.310  0.00  0.00    -0.273 OA
ATOM     23  N   ILE A  10      -5.123   8.330  21.191  0.00  0.00    -0.298 N 
ATOM     24  H   ILE A  10      -5.072   9.320  20.875  0.00  0.00    +0.150 HD
BRANCH  23  25
ATOM     25  CA  ILE A  10      -6.222   7.481  20.746  0.00  0.00    +0.137 C 
BRANCH  25  26
ATOM     26  C   ILE A  10      -6.306   7.603  19.239  0.00  0.00    +0.227 C 
ATOM     27  O   ILE A  10      -5.910   8.607  18.652  0.00  0.00    -0.286 OA
ENDBRANCH  25  26
BRANCH  25  28
ATOM     28  CB  ILE A  10      -7.469   7.945  21.547  0.00  0.00    +0.026 C 
ATOM     29  CG2 ILE A  10      -8.798   8.118  20.800  0.00  0.00    +0.002 C 
BRANCH  28  30
ATOM     30  CG1 ILE A  10      -7.649   6.888  22.639  0.00  0.00    +0.002 C 
ATOM     31  CD1 ILE A  10      -8.791   7.145  23.622  0.00  0.00    +0.000 C 
ENDBRANCH  28  30
ENDBRANCH  25  28
ENDBRANCH  23  25
ENDBRANCH  20  21
BRANCH  20  32
ATOM     32  CB  PHE A   9      -2.043   8.982  21.572  0.00  0.00    +0.055 C 
BRANCH  32  33
ATOM     33  CG  PHE A   9      -1.261   7.690  21.637  0.00  0.00    -0.020 A 
ATOM     34  CD2 PHE A   9      -0.363   7.448  22.707  0.00  0.00    -0.004 A 
ATOM     35  CE2 PHE A   9       0.357   6.232  22.762  0.00  0.00    -0.000 A 
ATOM     36  CZ  PHE A   9       0.174   5.267  21.750  0.00  0.00    -0.000 A 
ATOM     37  CE1 PHE A   9      -0.723   5.508  20.683  0.00  0.00    -0.000 A 
ATOM     38  CD1 PHE A   9      -1.447   6.722  20.624  0.00  0.00    -0.004 A 
ENDBRANCH  32  33
ENDBRANCH  20  32
ENDBRANCH  18  20
ENDBRANCH  15  16
ENDBRANCH  13  15
ENDBRANCH  10  11
ENDBRANCH   8  10
ENDBRANCH   5   6
BRANCH   5  39
ATOM     39  CB  ILE A   6      -5.479  13.875  30.033  0.00  0.00    +0.027 C 
ATOM     40  CG2 ILE A   6      -6.317  12.856  30.794  0.00  0.00    +0.002 C 
BRANCH  39  41
ATOM     41  CG1 ILE A   6      -4.501  14.624  30.949  0.00  0.00    +0.002 C 
ATOM     42  CD1 ILE A   6      -5.161  15.359  32.108  0.00  0.00    +0.000 C 
ENDBRANCH  39  41
ENDBRANCH   5  39
ENDBRANCH   2   5
BRANCH   1  43
ATOM     43  CA  GLY A   5      -5.492  13.228  25.370  0.00  0.00    +0.176 C 
BRANCH  43  45
ATOM     44  C   GLY A   4      -4.565  13.509  23.203  0.00  0.00    +0.243 C 
ATOM     45  N   GLY A   5      -4.684  12.775  24.275  0.00  0.00    -0.295 N 
ATOM     46  H   GLY A   5      -4.192  11.860  24.336  0.00  0.00    +0.150 HD
ATOM     47  O   GLY A   4      -5.138  14.569  23.018  0.00  0.00    -0.273 OA
BRANCH  44  48
ATOM     48  CA  GLY A   4      -3.669  12.906  22.180  0.00  0.00    +0.176 C 
BRANCH  48  50
ATOM     49  C   ILE A   3      -4.625  12.189  20.180  0.00  0.00    +0.241 C 
ATOM     50  N   GLY A   4      -4.211  13.196  20.880  0.00  0.00    -0.295 N 
ATOM     51  H   GLY A   4      -4.268  14.170  20.519  0.00  0.00    +0.150 HD
ATOM     52  O   ILE A   3      -4.596  11.039  20.582  0.00  0.00    -0.273 OA
BRANCH  49  53
ATOM     53  CA  ILE A   3      -5.076  12.542  18.809  0.00  0.00    +0.149 C 
BRANCH  53  55
ATOM     54  C   MET A   2      -4.497  11.315  16.889  0.00  0.00    +0.241 C 
ATOM     55  N   ILE A   3      -5.111  11.312  18.053  0.00  0.00    -0.297 N 
ATOM     56  H   ILE A   3      -5.598  10.465  18.411  0.00  0.00    +0.150 HD
ATOM     57  O   MET A   2      -4.003  12.306  16.373  0.00  0.00    -0.273 OA
BRANCH  54  58
ATOM     58  CA  MET A   2      -4.457   9.990  16.214  0.00  0.00    +0.149 C 
BRANCH  58  60
ATOM     59  C   LYS A   1      -5.520   9.634  14.101  0.00  0.00    +0.238 C 
ATOM     60  N   MET A   2      -4.544  10.238  14.773  0.00  0.00    -0.297 N 
ATOM     61  H   MET A   2      -3.867  10.864  14.292  0.00  0.00    +0.150 HD
ATOM     62  O   LYS A   1      -6.194   8.724  14.575  0.00  0.00    -0.274 OA
BRANCH  59  63
ATOM     63  CA  LYS A   1      -5.773  10.089  12.675  0.00  0.00    +0.145 C 
BRANCH  63  64
ATOM     64  N   LYS A   1      -6.509   8.991  12.065  0.00  0.00    -0.238 NA
ATOM     65  H   LYS A   1      -7.197   8.460  12.636  0.00  0.00    +0.142 HD
ENDBRANCH  63  64
BRANCH  63  66
ATOM     66  CB  LYS A   1      -6.713  11.309  12.591  0.00  0.00    +0.026 C 
BRANCH  66  67
ATOM     67  CG  LYS A   1      -6.262  12.626  13.228  0.00  0.00    -0.000 C 
BRANCH  67  68
ATOM     68  CD  LYS A   1      -7.354  13.690  13.105  0.00  0.00    -0.024 C 
BRANCH  68  69
ATOM     69  CE  LYS A   1      -7.098  14.978  13.880  0.00  0.00    -0.086 C 
BRANCH  69  70
ATOM     70  NZ  LYS A   1      -5.914  15.677  13.345  0.00  0.00    +0.380 N 
ATOM     71  HZ1 LYS A   1      -5.756  16.551  13.885  0.00  0.00    -0.089 HD
ATOM     72  HZ2 LYS A   1      -5.081  15.060  13.430  0.00  0.00    -0.089 HD
ATOM     73  HZ3 LYS A   1      -6.074  15.911  12.344  0.00  0.00    -0.089 HD
ENDBRANCH  69  70
ENDBRANCH  68  69
ENDBRANCH  67  68
ENDBRANCH  66  67
ENDBRANCH  63  66
ENDBRANCH  59  63
ENDBRANCH  58  60
BRANCH  58  74
ATOM     74  CB  MET A   2      -3.155   9.334  16.673  0.00  0.00    +0.041 C 
BRANCH  74  75
ATOM     75  CG  MET A   2      -3.031   7.886  16.188  0.00  0.00    +0.060 C 
BRANCH  75  76
ATOM     76  SD  MET A   2      -1.751   6.917  17.009  0.00  0.00    -0.139 S 
ATOM     77  CE  MET A   2      -0.482   8.171  16.981  0.00  0.00    +0.069 C 
ENDBRANCH  75  76
ENDBRANCH  74  75
ENDBRANCH  58  74
ENDBRANCH  54  58
ENDBRANCH  53  55
BRANCH  53  78
ATOM     78  CB  ILE A   3      -6.451  13.208  18.818  0.00  0.00    +0.027 C 
ATOM     79  CG2 ILE A   3      -6.817  13.620  17.412  0.00  0.00    +0.002 C 
BRANCH  78  80
ATOM     80  CG1 ILE A   3      -7.563  12.372  19.433  0.00  0.00    +0.002 C 
ATOM     81  CD1 ILE A   3      -8.638  13.280  20.041  0.00  0.00    +0.000 C 
ENDBRANCH  78  80
ENDBRANCH  53  78
ENDBRANCH  49  53
ENDBRANCH  48  50
ENDBRANCH  44  48
ENDBRANCH  43  45
ENDBRANCH   1  43
TORSDOF 36
REMARK  Name = ../refined-set-2016/1bv7/1bv7_pocket.pdb
REMARK  238 active torsions:
REMARK  status: ('A' for Active; 'I' for Inactive)
REMARK    1  A    between atoms: _1  and  _3
REMARK    2  A    between atoms: _3  and  _4
REMARK    3  A    between atoms: _3  and  _6
REMARK    4  A    between atoms: _6  and  _7
REMARK    5  A    between atoms: _7  and  _8
REMARK    6  A    between atoms: _8  and  _9
REMARK    7  A    between atoms: _18  and  _20
REMARK    8  A    between atoms: _20  and  _21
REMARK    9  A    between atoms: _20  and  _23
REMARK   10  A    between atoms: _23  and  _24
REMARK   11  A    between atoms: _27  and  _29
REMARK   12  A    between atoms: _29  and  _30
REMARK   13  A    between atoms: _29  and  _32
REMARK   14  A    between atoms: _32  and  _33
REMARK   15  A    between atoms: _36  and  _38
REMARK   16  A    between atoms: _38  and  _39
REMARK   17  A    between atoms: _38  and  _41
REMARK   18  A    between atoms: _41  and  _42
REMARK   19  A    between atoms: _45  and  _47
REMARK   20  A    between atoms: _47  and  _48
REMARK   21  A    between atoms: _47  and  _50
REMARK   22  A    between atoms: _50  and  _51
REMARK   23  A    between atoms: _54  and  _56
REMARK   24  A    between atoms: _56  and  _57
REMARK   25  A    between atoms: _59  and  _61
REMARK   26  A    between atoms: _61  and  _62
REMARK   27  A    between atoms: _65  and  _67
REMARK   28  A    between atoms: _67  and  _68
REMARK   29  A    between atoms: _67  and  _70
REMARK   30  A    between atoms: _70  and  _71
REMARK   31  A    between atoms: _74  and  _76
REMARK   32  A    between atoms: _76  and  _77
REMARK   33  A    between atoms: _76  and  _79
REMARK   34  A    between atoms: _79  and  _80
REMARK   35  A    between atoms: _83  and  _85
REMARK   36  A    between atoms: _85  and  _86
REMARK   37  A    between atoms: _85  and  _88
REMARK   38  A    between atoms: _88  and  _89
REMARK   39  A    between atoms: _92  and  _94
REMARK   40  A    between atoms: _94  and  _95
REMARK   41  A    between atoms: _94  and  _97
REMARK   42  A    between atoms: _100  and  _102
REMARK   43  A    between atoms: _102  and  _103
REMARK   44  A    between atoms: _102  and  _105
REMARK   45  A    between atoms: _105  and  _106
REMARK   46  A    between atoms: _109  and  _111
REMARK   47  A    between atoms: _111  and  _112
REMARK   48  A    between atoms: _111  and  _114
REMARK   49  A    between atoms: _114  and  _115
REMARK   50  A    between atoms: _115  and  _116
REMARK   51  A    between atoms: _116  and  _117
REMARK   52  A    between atoms: _117  and  _118
REMARK   53  A    between atoms: _122  and  _124
REMARK   54  A    between atoms: _124  and  _125
REMARK   55  A    between atoms: _124  and  _127
REMARK   56  A    between atoms: _127  and  _128
REMARK   57  A    between atoms: _128  and  _129
REMARK   58  A    between atoms: _131  and  _133
REMARK   59  A    between atoms: _133  and  _134
REMARK   60  A    between atoms: _133  and  _136
REMARK   61  A    between atoms: _136  and  _137
REMARK   62  A    between atoms: _140  and  _142
REMARK   63  A    between atoms: _142  and  _143
REMARK   64  A    between atoms: _145  and  _147
REMARK   65  A    between atoms: _147  and  _148
REMARK   66  A    between atoms: _150  and  _152
REMARK   67  A    between atoms: _152  and  _153
REMARK   68  A    between atoms: _152  and  _155
REMARK   69  A    between atoms: _155  and  _156
REMARK   70  A    between atoms: _159  and  _161
REMARK   71  A    between atoms: _161  and  _162
REMARK   72  A    between atoms: _164  and  _166
REMARK   73  A    between atoms: _166  and  _167
REMARK   74  A    between atoms: _169  and  _171
REMARK   75  A    between atoms: _171  and  _172
REMARK   76  A    between atoms: _171  and  _174
REMARK   77  A    between atoms: _174  and  _175
REMARK   78  A    between atoms: _181  and  _183
REMARK   79  A    between atoms: _183  and  _184
REMARK   80  A    between atoms: _183  and  _186
REMARK   81  A    between atoms: _186  and  _187
REMARK   82  A    between atoms: _190  and  _192
REMARK   83  A    between atoms: _192  and  _193
REMARK   84  A    between atoms: _192  and  _195
REMARK   85  A    between atoms: _195  and  _196
REMARK   86  A    between atoms: _200  and  _201
REMARK   87  A    between atoms: _206  and  _208
REMARK   88  A    between atoms: _208  and  _209
REMARK   89  A    between atoms: _208  and  _211
REMARK   90  A    between atoms: _211  and  _212
REMARK   91  A    between atoms: _216  and  _217
REMARK   92  A    between atoms: _222  and  _224
REMARK   93  A    between atoms: _224  and  _225
REMARK   94  A    between atoms: _224  and  _227
REMARK   95  A    between atoms: _227  and  _228
REMARK   96  A    between atoms: _234  and  _236
REMARK   97  A    between atoms: _236  and  _237
REMARK   98  A    between atoms: _236  and  _239
REMARK   99  A    between atoms: _239  and  _240
REMARK  100  A    between atoms: _245  and  _247
REMARK  101  A    between atoms: _247  and  _248
REMARK  102  A    between atoms: _247  and  _250
REMARK  103  A    between atoms: _250  and  _251
REMARK  104  A    between atoms: _254  and  _256
REMARK  105  A    between atoms: _256  and  _257
REMARK  106  A    between atoms: _256  and  _259
REMARK  107  A    between atoms: _259  and  _260
REMARK  108  A    between atoms: _263  and  _265
REMARK  109  A    between atoms: _265  and  _266
REMARK  110  A    between atoms: _268  and  _270
REMARK  111  A    between atoms: _270  and  _271
REMARK  112  A    between atoms: _270  and  _273
REMARK  113  A    between atoms: _273  and  _274
REMARK  114  A    between atoms: _274  and  _275
REMARK  115  A    between atoms: _275  and  _276
REMARK  116  A    between atoms: _285  and  _287
REMARK  117  A    between atoms: _287  and  _288
REMARK  118  A    between atoms: _287  and  _290
REMARK  119  A    between atoms: _290  and  _291
REMARK  120  A    between atoms: _296  and  _298
REMARK  121  A    between atoms: _298  and  _299
REMARK  122  A    between atoms: _298  and  _301
REMARK  123  A    between atoms: _301  and  _302
REMARK  124  A    between atoms: _302  and  _303
REMARK  125  A    between atoms: _303  and  _304
REMARK  126  A    between atoms: _313  and  _315
REMARK  127  A    between atoms: _315  and  _316
REMARK  128  A    between atoms: _315  and  _318
REMARK  129  A    between atoms: _318  and  _319
REMARK  130  A    between atoms: _322  and  _324
REMARK  131  A    between atoms: _324  and  _325
REMARK  132  A    between atoms: _324  and  _327
REMARK  133  A    between atoms: _327  and  _328
REMARK  134  A    between atoms: _331  and  _333
REMARK  135  A    between atoms: _333  and  _334
REMARK  136  A    between atoms: _333  and  _336
REMARK  137  A    between atoms: _336  and  _337
REMARK  138  A    between atoms: _340  and  _342
REMARK  139  A    between atoms: _342  and  _343
REMARK  140  A    between atoms: _342  and  _345
REMARK  141  A    between atoms: _345  and  _346
REMARK  142  A    between atoms: _349  and  _351
REMARK  143  A    between atoms: _351  and  _352
REMARK  144  A    between atoms: _354  and  _356
REMARK  145  A    between atoms: _356  and  _357
REMARK  146  A    between atoms: _360  and  _362
REMARK  147  A    between atoms: _362  and  _363
REMARK  148  A    between atoms: _362  and  _365
REMARK  149  A    between atoms: _365  and  _366
REMARK  150  A    between atoms: _369  and  _371
REMARK  151  A    between atoms: _371  and  _372
REMARK  152  A    between atoms: _371  and  _374
REMARK  153  A    between atoms: _374  and  _375
REMARK  154  A    between atoms: _378  and  _380
REMARK  155  A    between atoms: _380  and  _381
REMARK  156  A    between atoms: _380  and  _383
REMARK  157  A    between atoms: _383  and  _384
REMARK  158  A    between atoms: _387  and  _389
REMARK  159  A    between atoms: _389  and  _390
REMARK  160  A    between atoms: _389  and  _392
REMARK  161  A    between atoms: _395  and  _397
REMARK  162  A    between atoms: _397  and  _398
REMARK  163  A    between atoms: _397  and  _400
REMARK  164  A    between atoms: _400  and  _401
REMARK  165  A    between atoms: _404  and  _406
REMARK  166  A    between atoms: _406  and  _407
REMARK  167  A    between atoms: _406  and  _409
REMARK  168  A    between atoms: _409  and  _410
REMARK  169  A    between atoms: _410  and  _411
REMARK  170  A    between atoms: _411  and  _412
REMARK  171  A    between atoms: _412  and  _413
REMARK  172  A    between atoms: _417  and  _419
REMARK  173  A    between atoms: _419  and  _420
REMARK  174  A    between atoms: _419  and  _422
REMARK  175  A    between atoms: _422  and  _423
REMARK  176  A    between atoms: _423  and  _424
REMARK  177  A    between atoms: _426  and  _428
REMARK  178  A    between atoms: _428  and  _429
REMARK  179  A    between atoms: _428  and  _431
REMARK  180  A    between atoms: _431  and  _432
REMARK  181  A    between atoms: _435  and  _437
REMARK  182  A    between atoms: _437  and  _438
REMARK  183  A    between atoms: _440  and  _442
REMARK  184  A    between atoms: _442  and  _443
REMARK  185  A    between atoms: _445  and  _447
REMARK  186  A    between atoms: _447  and  _448
REMARK  187  A    between atoms: _447  and  _450
REMARK  188  A    between atoms: _450  and  _451
REMARK  189  A    between atoms: _454  and  _456
REMARK  190  A    between atoms: _456  and  _457
REMARK  191  A    between atoms: _459  and  _461
REMARK  192  A    between atoms: _461  and  _462
REMARK  193  A    between atoms: _464  and  _466
REMARK  194  A    between atoms: _466  and  _467
REMARK  195  A    between atoms: _466  and  _469
REMARK  196  A    between atoms: _469  and  _470
REMARK  197  A    between atoms: _476  and  _478
REMARK  198  A    between atoms: _478  and  _479
REMARK  199  A    between atoms: _478  and  _481
REMARK  200  A    between atoms: _481  and  _482
REMARK  201  A    between atoms: _485  and  _487
REMARK  202  A    between atoms: _487  and  _488
REMARK  203  A    between atoms: _487  and  _490
REMARK  204  A    between atoms: _490  and  _491
REMARK  205  A    between atoms: _495  and  _496
REMARK  206  A    between atoms: _501  and  _503
REMARK  207  A    between atoms: _503  and  _504
REMARK  208  A    between atoms: _503  and  _506
REMARK  209  A    between atoms: _506  and  _507
REMARK  210  A    between atoms: _511  and  _512
REMARK  211  A    between atoms: _517  and  _519
REMARK  212  A    between atoms: _519  and  _520
REMARK  213  A    between atoms: _519  and  _522
REMARK  214  A    between atoms: _522  and  _523
REMARK  215  A    between atoms: _529  and  _531
REMARK  216  A    between atoms: _531  and  _532
REMARK  217  A    between atoms: _531  and  _534
REMARK  218  A    between atoms: _534  and  _535
REMARK  219  A    between atoms: _540  and  _542
REMARK  220  A    between atoms: _542  and  _543
REMARK  221  A    between atoms: _542  and  _545
REMARK  222  A    between atoms: _545  and  _546
REMARK  223  A    between atoms: _549  and  _551
REMARK  224  A    between atoms: _551  and  _552
REMARK  225  A    between atoms: _551  and  _554
REMARK  226  A    between atoms: _554  and  _555
REMARK  227  A    between atoms: _558  and  _560
REMARK  228  A    between atoms: _560  and  _561
REMARK  229  A    between atoms: _563  and  _565
REMARK  230  A    between atoms: _565  and  _566
REMARK  231  A    between atoms: _565  and  _568
REMARK  232  A    between atoms: _568  and  _569
REMARK  233  A    between atoms: _569  and  _570
REMARK  234  A    between atoms: _570  and  _571
REMARK  235  A    between atoms: _580  and  _582
REMARK  236  A    between atoms: _582  and  _583
REMARK  237  A    between atoms: _582  and  _585
REMARK  238  A    between atoms: _585  and  _586
REMARK                            x       y       z     vdW  Elec       q    Type
REMARK                         _______ _______ _______ _____ _____    ______ ____
ROOT
ATOM      1  CA  LEU A   1     -13.296  12.468  14.611  0.00  0.00    +0.133 C 
ENDROOT
BRANCH   1   2
ATOM      2  N   LEU A   1     -14.068  13.701  14.442  0.00  0.00    -0.239 NA
ATOM      3  H   LEU A   1     -14.226  14.316  15.266  0.00  0.00    +0.142 HD
ENDBRANCH   1   2
BRANCH   1   4
ATOM      4  C   LEU A   1     -14.185  11.496  15.359  0.00  0.00    +0.224 C 
ATOM      5  O   LEU A   1     -14.910  11.838  16.287  0.00  0.00    -0.287 OA
ENDBRANCH   1   4
BRANCH   1   6
ATOM      6  CB  LEU A   1     -12.104  12.722  15.526  0.00  0.00    +0.025 C 
BRANCH   6   7
ATOM      7  CG  LEU A   1     -10.844  13.364  14.953  0.00  0.00    +0.002 C 
ATOM      8  CD2 LEU A   1     -10.041  13.988  16.101  0.00  0.00    +0.000 C 
ATOM      9  CD1 LEU A   1     -11.106  14.372  13.839  0.00  0.00    +0.000 C 
ENDBRANCH   6   7
ENDBRANCH   1   6
TORSDOF 4
REMARK  Name = ../refined-set-2016/1bv7/1bv7_pocket.pdb
REMARK  238 active torsions:
REMARK  status: ('A' for Active; 'I' for Inactive)
REMARK    1  A    between atoms: _1  and  _3
REMARK    2  A    between atoms: _3  and  _4
REMARK    3  A    between atoms: _3  and  _6
REMARK    4  A    between atoms: _6  and  _7
REMARK    5  A    between atoms: _7  and  _8
REMARK    6  A    between atoms: _8  and  _9
REMARK    7  A    between atoms: _18  and  _20
REMARK    8  A    between atoms: _20  and  _21
REMARK    9  A    between atoms: _20  and  _23
REMARK   10  A    between atoms: _23  and  _24
REMARK   11  A    between atoms: _27  and  _29
REMARK   12  A    between atoms: _29  and  _30
REMARK   13  A    between atoms: _29  and  _32
REMARK   14  A    between atoms: _32  and  _33
REMARK   15  A    between atoms: _36  and  _38
REMARK   16  A    between atoms: _38  and  _39
REMARK   17  A    between atoms: _38  and  _41
REMARK   18  A    between atoms: _41  and  _42
REMARK   19  A    between atoms: _45  and  _47
REMARK   20  A    between atoms: _47  and  _48
REMARK   21  A    between atoms: _47  and  _50
REMARK   22  A    between atoms: _50  and  _51
REMARK   23  A    between atoms: _54  and  _56
REMARK   24  A    between atoms: _56  and  _57
REMARK   25  A    between atoms: _59  and  _61
REMARK   26  A    between atoms: _61  and  _62
REMARK   27  A    between atoms: _65  and  _67
REMARK   28  A    between atoms: _67  and  _68
REMARK   29  A    between atoms: _67  and  _70
REMARK   30  A    between atoms: _70  and  _71
REMARK   31  A    between atoms: _74  and  _76
REMARK   32  A    between atoms: _76  and  _77
REMARK   33  A    between atoms: _76  and  _79
REMARK   34  A    between atoms: _79  and  _80
REMARK   35  A    between atoms: _83  and  _85
REMARK   36  A    between atoms: _85  and  _86
REMARK   37  A    between atoms: _85  and  _88
REMARK   38  A    between atoms: _88  and  _89
REMARK   39  A    between atoms: _92  and  _94
REMARK   40  A    between atoms: _94  and  _95
REMARK   41  A    between atoms: _94  and  _97
REMARK   42  A    between atoms: _100  and  _102
REMARK   43  A    between atoms: _102  and  _103
REMARK   44  A    between atoms: _102  and  _105
REMARK   45  A    between atoms: _105  and  _106
REMARK   46  A    between atoms: _109  and  _111
REMARK   47  A    between atoms: _111  and  _112
REMARK   48  A    between atoms: _111  and  _114
REMARK   49  A    between atoms: _114  and  _115
REMARK   50  A    between atoms: _115  and  _116
REMARK   51  A    between atoms: _116  and  _117
REMARK   52  A    between atoms: _117  and  _118
REMARK   53  A    between atoms: _122  and  _124
REMARK   54  A    between atoms: _124  and  _125
REMARK   55  A    between atoms: _124  and  _127
REMARK   56  A    between atoms: _127  and  _128
REMARK   57  A    between atoms: _128  and  _129
REMARK   58  A    between atoms: _131  and  _133
REMARK   59  A    between atoms: _133  and  _134
REMARK   60  A    between atoms: _133  and  _136
REMARK   61  A    between atoms: _136  and  _137
REMARK   62  A    between atoms: _140  and  _142
REMARK   63  A    between atoms: _142  and  _143
REMARK   64  A    between atoms: _145  and  _147
REMARK   65  A    between atoms: _147  and  _148
REMARK   66  A    between atoms: _150  and  _152
REMARK   67  A    between atoms: _152  and  _153
REMARK   68  A    between atoms: _152  and  _155
REMARK   69  A    between atoms: _155  and  _156
REMARK   70  A    between atoms: _159  and  _161
REMARK   71  A    between atoms: _161  and  _162
REMARK   72  A    between atoms: _164  and  _166
REMARK   73  A    between atoms: _166  and  _167
REMARK   74  A    between atoms: _169  and  _171
REMARK   75  A    between atoms: _171  and  _172
REMARK   76  A    between atoms: _171  and  _174
REMARK   77  A    between atoms: _174  and  _175
REMARK   78  A    between atoms: _181  and  _183
REMARK   79  A    between atoms: _183  and  _184
REMARK   80  A    between atoms: _183  and  _186
REMARK   81  A    between atoms: _186  and  _187
REMARK   82  A    between atoms: _190  and  _192
REMARK   83  A    between atoms: _192  and  _193
REMARK   84  A    between atoms: _192  and  _195
REMARK   85  A    between atoms: _195  and  _196
REMARK   86  A    between atoms: _200  and  _201
REMARK   87  A    between atoms: _206  and  _208
REMARK   88  A    between atoms: _208  and  _209
REMARK   89  A    between atoms: _208  and  _211
REMARK   90  A    between atoms: _211  and  _212
REMARK   91  A    between atoms: _216  and  _217
REMARK   92  A    between atoms: _222  and  _224
REMARK   93  A    between atoms: _224  and  _225
REMARK   94  A    between atoms: _224  and  _227
REMARK   95  A    between atoms: _227  and  _228
REMARK   96  A    between atoms: _234  and  _236
REMARK   97  A    between atoms: _236  and  _237
REMARK   98  A    between atoms: _236  and  _239
REMARK   99  A    between atoms: _239  and  _240
REMARK  100  A    between atoms: _245  and  _247
REMARK  101  A    between atoms: _247  and  _248
REMARK  102  A    between atoms: _247  and  _250
REMARK  103  A    between atoms: _250  and  _251
REMARK  104  A    between atoms: _254  and  _256
REMARK  105  A    between atoms: _256  and  _257
REMARK  106  A    between atoms: _256  and  _259
REMARK  107  A    between atoms: _259  and  _260
REMARK  108  A    between atoms: _263  and  _265
REMARK  109  A    between atoms: _265  and  _266
REMARK  110  A    between atoms: _268  and  _270
REMARK  111  A    between atoms: _270  and  _271
REMARK  112  A    between atoms: _270  and  _273
REMARK  113  A    between atoms: _273  and  _274
REMARK  114  A    between atoms: _274  and  _275
REMARK  115  A    between atoms: _275  and  _276
REMARK  116  A    between atoms: _285  and  _287
REMARK  117  A    between atoms: _287  and  _288
REMARK  118  A    between atoms: _287  and  _290
REMARK  119  A    between atoms: _290  and  _291
REMARK  120  A    between atoms: _296  and  _298
REMARK  121  A    between atoms: _298  and  _299
REMARK  122  A    between atoms: _298  and  _301
REMARK  123  A    between atoms: _301  and  _302
REMARK  124  A    between atoms: _302  and  _303
REMARK  125  A    between atoms: _303  and  _304
REMARK  126  A    between atoms: _313  and  _315
REMARK  127  A    between atoms: _315  and  _316
REMARK  128  A    between atoms: _315  and  _318
REMARK  129  A    between atoms: _318  and  _319
REMARK  130  A    between atoms: _322  and  _324
REMARK  131  A    between atoms: _324  and  _325
REMARK  132  A    between atoms: _324  and  _327
REMARK  133  A    between atoms: _327  and  _328
REMARK  134  A    between atoms: _331  and  _333
REMARK  135  A    between atoms: _333  and  _334
REMARK  136  A    between atoms: _333  and  _336
REMARK  137  A    between atoms: _336  and  _337
REMARK  138  A    between atoms: _340  and  _342
REMARK  139  A    between atoms: _342  and  _343
REMARK  140  A    between atoms: _342  and  _345
REMARK  141  A    between atoms: _345  and  _346
REMARK  142  A    between atoms: _349  and  _351
REMARK  143  A    between atoms: _351  and  _352
REMARK  144  A    between atoms: _354  and  _356
REMARK  145  A    between atoms: _356  and  _357
REMARK  146  A    between atoms: _360  and  _362
REMARK  147  A    between atoms: _362  and  _363
REMARK  148  A    between atoms: _362  and  _365
REMARK  149  A    between atoms: _365  and  _366
REMARK  150  A    between atoms: _369  and  _371
REMARK  151  A    between atoms: _371  and  _372
REMARK  152  A    between atoms: _371  and  _374
REMARK  153  A    between atoms: _374  and  _375
REMARK  154  A    between atoms: _378  and  _380
REMARK  155  A    between atoms: _380  and  _381
REMARK  156  A    between atoms: _380  and  _383
REMARK  157  A    between atoms: _383  and  _384
REMARK  158  A    between atoms: _387  and  _389
REMARK  159  A    between atoms: _389  and  _390
REMARK  160  A    between atoms: _389  and  _392
REMARK  161  A    between atoms: _395  and  _397
REMARK  162  A    between atoms: _397  and  _398
REMARK  163  A    between atoms: _397  and  _400
REMARK  164  A    between atoms: _400  and  _401
REMARK  165  A    between atoms: _404  and  _406
REMARK  166  A    between atoms: _406  and  _407
REMARK  167  A    between atoms: _406  and  _409
REMARK  168  A    between atoms: _409  and  _410
REMARK  169  A    between atoms: _410  and  _411
REMARK  170  A    between atoms: _411  and  _412
REMARK  171  A    between atoms: _412  and  _413
REMARK  172  A    between atoms: _417  and  _419
REMARK  173  A    between atoms: _419  and  _420
REMARK  174  A    between atoms: _419  and  _422
REMARK  175  A    between atoms: _422  and  _423
REMARK  176  A    between atoms: _423  and  _424
REMARK  177  A    between atoms: _426  and  _428
REMARK  178  A    between atoms: _428  and  _429
REMARK  179  A    between atoms: _428  and  _431
REMARK  180  A    between atoms: _431  and  _432
REMARK  181  A    between atoms: _435  and  _437
REMARK  182  A    between atoms: _437  and  _438
REMARK  183  A    between atoms: _440  and  _442
REMARK  184  A    between atoms: _442  and  _443
REMARK  185  A    between atoms: _445  and  _447
REMARK  186  A    between atoms: _447  and  _448
REMARK  187  A    between atoms: _447  and  _450
REMARK  188  A    between atoms: _450  and  _451
REMARK  189  A    between atoms: _454  and  _456
REMARK  190  A    between atoms: _456  and  _457
REMARK  191  A    between atoms: _459  and  _461
REMARK  192  A    between atoms: _461  and  _462
REMARK  193  A    between atoms: _464  and  _466
REMARK  194  A    between atoms: _466  and  _467
REMARK  195  A    between atoms: _466  and  _469
REMARK  196  A    between atoms: _469  and  _470
REMARK  197  A    between atoms: _476  and  _478
REMARK  198  A    between atoms: _478  and  _479
REMARK  199  A    between atoms: _478  and  _481
REMARK  200  A    between atoms: _481  and  _482
REMARK  201  A    between atoms: _485  and  _487
REMARK  202  A    between atoms: _487  and  _488
REMARK  203  A    between atoms: _487  and  _490
REMARK  204  A    between atoms: _490  and  _491
REMARK  205  A    between atoms: _495  and  _496
REMARK  206  A    between atoms: _501  and  _503
REMARK  207  A    between atoms: _503  and  _504
REMARK  208  A    between atoms: _503  and  _506
REMARK  209  A    between atoms: _506  and  _507
REMARK  210  A    between atoms: _511  and  _512
REMARK  211  A    between atoms: _517  and  _519
REMARK  212  A    between atoms: _519  and  _520
REMARK  213  A    between atoms: _519  and  _522
REMARK  214  A    between atoms: _522  and  _523
REMARK  215  A    between atoms: _529  and  _531
REMARK  216  A    between atoms: _531  and  _532
REMARK  217  A    between atoms: _531  and  _534
REMARK  218  A    between atoms: _534  and  _535
REMARK  219  A    between atoms: _540  and  _542
REMARK  220  A    between atoms: _542  and  _543
REMARK  221  A    between atoms: _542  and  _545
REMARK  222  A    between atoms: _545  and  _546
REMARK  223  A    between atoms: _549  and  _551
REMARK  224  A    between atoms: _551  and  _552
REMARK  225  A    between atoms: _551  and  _554
REMARK  226  A    between atoms: _554  and  _555
REMARK  227  A    between atoms: _558  and  _560
REMARK  228  A    between atoms: _560  and  _561
REMARK  229  A    between atoms: _563  and  _565
REMARK  230  A    between atoms: _565  and  _566
REMARK  231  A    between atoms: _565  and  _568
REMARK  232  A    between atoms: _568  and  _569
REMARK  233  A    between atoms: _569  and  _570
REMARK  234  A    between atoms: _570  and  _571
REMARK  235  A    between atoms: _580  and  _582
REMARK  236  A    between atoms: _582  and  _583
REMARK  237  A    between atoms: _582  and  _585
REMARK  238  A    between atoms: _585  and  _586
REMARK                            x       y       z     vdW  Elec       q    Type
REMARK                         _______ _______ _______ _____ _____    ______ ____
ROOT
ATOM      1  CA  ILE A   6     -16.733  16.269  22.889  0.00  0.00    +0.149 C 
ENDROOT
BRANCH   1   2
ATOM      2  C   ILE A   6     -16.912  17.148  21.679  0.00  0.00    +0.241 C 
ATOM      3  N   ILE A   7     -17.484  18.340  21.826  0.00  0.00    -0.297 N 
ATOM      4  H   ILE A   7     -18.023  18.610  22.673  0.00  0.00    +0.150 HD
ATOM      5  O   ILE A   6     -16.497  16.753  20.605  0.00  0.00    -0.273 OA
BRANCH   3   6
ATOM      6  CA  ILE A   7     -17.287  19.231  20.696  0.00  0.00    +0.149 C 
BRANCH   6   7
ATOM      7  C   ILE A   7     -16.278  20.276  21.042  0.00  0.00    +0.241 C 
ATOM      8  O   ILE A   7     -16.261  20.768  22.143  0.00  0.00    -0.273 OA
ATOM      9  N   GLY A   8     -15.385  20.528  20.124  0.00  0.00    -0.295 N 
ATOM     10  H   GLY A   8     -15.569  20.273  19.133  0.00  0.00    +0.150 HD
BRANCH   9  11
ATOM     11  CA  GLY A   8     -14.138  21.164  20.491  0.00  0.00    +0.176 C 
BRANCH  11  12
ATOM     12  C   GLY A   8     -14.116  22.466  19.773  0.00  0.00    +0.243 C 
ATOM     13  N   ARG A   9     -12.969  23.102  19.730  0.00  0.00    -0.297 N 
ATOM     14  H   ARG A   9     -12.088  22.661  20.064  0.00  0.00    +0.150 HD
ATOM     15  O   GLY A   8     -15.126  22.894  19.236  0.00  0.00    -0.273 OA
BRANCH  13  16
ATOM     16  CA  ARG A   9     -12.988  24.449  19.195  0.00  0.00    +0.149 C 
BRANCH  16  17
ATOM     17  C   ARG A   9     -13.247  24.592  17.729  0.00  0.00    +0.241 C 
ATOM     18  O   ARG A   9     -13.746  25.613  17.297  0.00  0.00    -0.273 OA
ATOM     19  N   ASN A  10     -12.967  23.568  16.946  0.00  0.00    -0.298 N 
ATOM     20  H   ASN A  10     -12.511  22.707  17.309  0.00  0.00    +0.150 HD
BRANCH  19  21
ATOM     21  CA  ASN A  10     -13.335  23.713  15.538  0.00  0.00    +0.146 C 
BRANCH  21  22
ATOM     22  C   ASN A  10     -14.805  23.896  15.229  0.00  0.00    +0.227 C 
ATOM     23  O   ASN A  10     -15.192  24.466  14.229  0.00  0.00    -0.286 OA
ENDBRANCH  21  22
BRANCH  21  24
ATOM     24  CB  ASN A  10     -12.827  22.529  14.715  0.00  0.00    +0.112 C 
BRANCH  24  25
ATOM     25  CG  ASN A  10     -13.592  21.265  15.010  0.00  0.00    +0.222 C 
ATOM     26  OD1 ASN A  10     -13.867  20.930  16.147  0.00  0.00    -0.275 OA
ATOM     27  ND2 ASN A  10     -13.939  20.561  13.956  0.00  0.00    -0.329 N 
ATOM     28 HD21 ASN A  10     -14.472  19.676  14.074  0.00  0.00    +0.145 HD
ATOM     29 HD22 ASN A  10     -13.681  20.889  13.004  0.00  0.00    +0.145 HD
ENDBRANCH  24  25
ENDBRANCH  21  24
ENDBRANCH  19  21
ENDBRANCH  16  17
BRANCH  16  30
ATOM     30  CB  ARG A   9     -11.725  25.204  19.526  0.00  0.00    +0.033 C 
BRANCH  30  31
ATOM     31  CG  ARG A   9     -11.495  25.443  21.022  0.00  0.00    +0.045 C 
BRANCH  31  32
ATOM     32  CD  ARG A   9     -10.254  26.316  21.256  0.00  0.00    +0.174 C 
BRANCH  32  33
ATOM     33  NE  ARG A   9      -9.009  25.676  20.867  0.00  0.00    -0.265 N 
ATOM     34  HE  ARG A   9      -8.609  24.931  21.472  0.00  0.00    +0.259 HD
ATOM     35  CZ  ARG A   9      -8.367  26.026  19.747  0.00  0.00    +0.342 C 
ATOM     36  NH2 ARG A   9      -7.171  25.506  19.469  0.00  0.00    -0.292 N 
ATOM     37 HH21 ARG A   9      -6.735  24.826  20.124  0.00  0.00    +0.255 HD
ATOM     38 HH22 ARG A   9      -6.675  25.780  18.597  0.00  0.00    +0.255 HD
ATOM     39  NH1 ARG A   9      -8.907  26.889  18.903  0.00  0.00    -0.292 N 
ATOM     40 HH11 ARG A   9      -9.839  27.302  19.107  0.00  0.00    +0.255 HD
ATOM     41 HH12 ARG A   9      -8.399  27.154  18.035  0.00  0.00    +0.255 HD
ENDBRANCH  32  33
ENDBRANCH  31  32
ENDBRANCH  30  31
ENDBRANCH  16  30
ENDBRANCH  13  16
ENDBRANCH  11  12
ENDBRANCH   9  11
ENDBRANCH   6   7
BRANCH   6  42
ATOM     42  CB  ILE A   7     -18.593  19.864  20.232  0.00  0.00    +0.027 C 
ATOM     43  CG2 ILE A   7     -19.724  18.851  20.083  0.00  0.00    +0.002 C 
BRANCH  42  44
ATOM     44  CG1 ILE A   7     -19.101  21.012  21.041  0.00  0.00    +0.002 C 
ATOM     45  CD1 ILE A   7     -19.994  21.802  20.085  0.00  0.00    +0.000 C 
ENDBRANCH  42  44
ENDBRANCH   6  42
ENDBRANCH   3   6
ENDBRANCH   1   2
BRANCH   1  48
ATOM     46  C   ASN A   5     -18.365  14.496  23.171  0.00  0.00    +0.241 C 
ATOM     47  O   ASN A   5     -18.931  15.089  24.079  0.00  0.00    -0.273 OA
ATOM     48  N   ILE A   6     -17.318  14.971  22.550  0.00  0.00    -0.297 N 
ATOM     49  H   ILE A   6     -16.886  14.408  21.790  0.00  0.00    +0.150 HD
BRANCH  46  50
ATOM     50  CA  ASN A   5     -18.825  13.136  22.746  0.00  0.00    +0.158 C 
BRANCH  50  52
ATOM     51  C   PHE A   4     -17.914  11.781  24.441  0.00  0.00    +0.241 C 
ATOM     52  N   ASN A   5     -18.985  12.367  23.971  0.00  0.00    -0.297 N 
ATOM     53  H   ASN A   5     -19.905  12.287  24.449  0.00  0.00    +0.150 HD
ATOM     54  O   PHE A   4     -16.852  11.735  23.866  0.00  0.00    -0.273 OA
BRANCH  51  55
ATOM     55  CA  PHE A   4     -18.027  11.229  25.793  0.00  0.00    +0.153 C 
BRANCH  55  58
ATOM     56  C   PRO A   3     -17.136   9.105  26.516  0.00  0.00    +0.241 C 
ATOM     57  O   PRO A   3     -18.164   8.852  27.105  0.00  0.00    -0.273 OA
ATOM     58  N   PHE A   4     -16.961  10.246  25.860  0.00  0.00    -0.297 N 
ATOM     59  H   PHE A   4     -16.053  10.437  25.390  0.00  0.00    +0.150 HD
BRANCH  56  62
ATOM     60  C   THR A   2     -14.818   8.055  24.428  0.00  0.00    +0.246 C 
ATOM     61  N   PRO A   3     -14.817   8.484  25.700  0.00  0.00    -0.272 N 
ATOM     62  CA  PRO A   3     -15.964   8.123  26.555  0.00  0.00    +0.152 C 
ATOM     63  CB  PRO A   3     -15.257   8.090  27.923  0.00  0.00    +0.031 C 
ATOM     64  CG  PRO A   3     -14.187   9.190  27.882  0.00  0.00    +0.024 C 
ATOM     65  CD  PRO A   3     -13.737   9.177  26.433  0.00  0.00    +0.094 C 
ATOM     66  O   THR A   2     -15.619   7.243  23.990  0.00  0.00    -0.273 OA
BRANCH  60  67
ATOM     67  CA  THR A   2     -13.749   8.597  23.516  0.00  0.00    +0.176 C 
BRANCH  67  70
ATOM     68  C   PRO A   1     -12.671   6.736  22.490  0.00  0.00    +0.239 C 
ATOM     69  O   PRO A   1     -11.827   6.739  23.367  0.00  0.00    -0.274 OA
ATOM     70  N   THR A   2     -13.614   7.655  22.420  0.00  0.00    -0.295 N 
ATOM     71  H   THR A   2     -14.248   7.704  21.597  0.00  0.00    +0.150 HD
BRANCH  68  73
ATOM     72  N   PRO A   1     -12.624   6.124  20.004  0.00  0.00    -0.210 NA
ATOM     73  CA  PRO A   1     -12.684   5.660  21.404  0.00  0.00    +0.149 C 
ATOM     74  CB  PRO A   1     -11.425   4.769  21.484  0.00  0.00    +0.028 C 
ATOM     75  CG  PRO A   1     -11.052   4.378  20.060  0.00  0.00    +0.021 C 
ATOM     76  CD  PRO A   1     -11.401   5.669  19.341  0.00  0.00    +0.089 C 
ENDBRANCH  68  73
ENDBRANCH  67  70
BRANCH  67  77
ATOM     77  CB  THR A   2     -14.106   9.952  22.899  0.00  0.00    +0.137 C 
ATOM     78  CG2 THR A   2     -15.264   9.904  21.945  0.00  0.00    +0.034 C 
BRANCH  77  79
ATOM     79  OG1 THR A   2     -14.377  10.895  23.915  0.00  0.00    -0.382 OA
ATOM     80  HG1 THR A   2     -15.138  10.578  24.464  0.00  0.00    +0.210 HD
ENDBRANCH  77  79
ENDBRANCH  67  77
ENDBRANCH  60  67
ENDBRANCH  56  62
ENDBRANCH  55  58
BRANCH  55  81
ATOM     81  CB  PHE A   4     -17.732  12.514  26.568  0.00  0.00    +0.055 C 
BRANCH  81  82
ATOM     82  CG  PHE A   4     -17.972  12.299  28.016  0.00  0.00    -0.020 A 
ATOM     83  CD2 PHE A   4     -16.874  12.352  28.893  0.00  0.00    -0.004 A 
ATOM     84  CE2 PHE A   4     -17.069  11.998  30.243  0.00  0.00    -0.000 A 
ATOM     85  CZ  PHE A   4     -18.356  11.612  30.692  0.00  0.00    -0.000 A 
ATOM     86  CE1 PHE A   4     -19.461  11.585  29.803  0.00  0.00    -0.000 A 
ATOM     87  CD1 PHE A   4     -19.266  11.937  28.451  0.00  0.00    -0.004 A 
ENDBRANCH  81  82
ENDBRANCH  55  81
ENDBRANCH  51  55
ENDBRANCH  50  52
BRANCH  50  88
ATOM     88  CB  ASN A   5     -20.196  13.241  22.048  0.00  0.00    +0.114 C 
BRANCH  88  89
ATOM     89  CG  ASN A   5     -20.828  11.884  21.790  0.00  0.00    +0.222 C 
ATOM     90  ND2 ASN A   5     -22.001  11.711  22.379  0.00  0.00    -0.329 N 
ATOM     91 HD21 ASN A   5     -22.421  12.481  22.937  0.00  0.00    +0.145 HD
ATOM     92 HD22 ASN A   5     -22.502  10.805  22.283  0.00  0.00    +0.145 HD
ATOM     93  OD1 ASN A   5     -20.291  11.011  21.123  0.00  0.00    -0.275 OA
ENDBRANCH  88  89
ENDBRANCH  50  88
ENDBRANCH  46  50
ENDBRANCH   1  48
BRANCH   1  94
ATOM     94  CB  ILE A   6     -15.203  16.116  23.076  0.00  0.00    +0.027 C 
ATOM     95  CG2 ILE A   6     -14.497  17.443  23.301  0.00  0.00    +0.002 C 
BRANCH  94  96
ATOM     96  CG1 ILE A   6     -14.679  15.119  24.086  0.00  0.00    +0.002 C 
ATOM     97  CD1 ILE A   6     -15.135  15.325  25.513  0.00  0.00    +0.000 C 
ENDBRANCH  94  96
ENDBRANCH   1  94
TORSDOF 34
REMARK  Name = ../refined-set-2016/1bv7/1bv7_pocket.pdb
REMARK  238 active torsions:
REMARK  status: ('A' for Active; 'I' for Inactive)
REMARK    1  A    between atoms: _1  and  _3
REMARK    2  A    between atoms: _3  and  _4
REMARK    3  A    between atoms: _3  and  _6
REMARK    4  A    between atoms: _6  and  _7
REMARK    5  A    between atoms: _7  and  _8
REMARK    6  A    between atoms: _8  and  _9
REMARK    7  A    between atoms: _18  and  _20
REMARK    8  A    between atoms: _20  and  _21
REMARK    9  A    between atoms: _20  and  _23
REMARK   10  A    between atoms: _23  and  _24
REMARK   11  A    between atoms: _27  and  _29
REMARK   12  A    between atoms: _29  and  _30
REMARK   13  A    between atoms: _29  and  _32
REMARK   14  A    between atoms: _32  and  _33
REMARK   15  A    between atoms: _36  and  _38
REMARK   16  A    between atoms: _38  and  _39
REMARK   17  A    between atoms: _38  and  _41
REMARK   18  A    between atoms: _41  and  _42
REMARK   19  A    between atoms: _45  and  _47
REMARK   20  A    between atoms: _47  and  _48
REMARK   21  A    between atoms: _47  and  _50
REMARK   22  A    between atoms: _50  and  _51
REMARK   23  A    between atoms: _54  and  _56
REMARK   24  A    between atoms: _56  and  _57
REMARK   25  A    between atoms: _59  and  _61
REMARK   26  A    between atoms: _61  and  _62
REMARK   27  A    between atoms: _65  and  _67
REMARK   28  A    between atoms: _67  and  _68
REMARK   29  A    between atoms: _67  and  _70
REMARK   30  A    between atoms: _70  and  _71
REMARK   31  A    between atoms: _74  and  _76
REMARK   32  A    between atoms: _76  and  _77
REMARK   33  A    between atoms: _76  and  _79
REMARK   34  A    between atoms: _79  and  _80
REMARK   35  A    between atoms: _83  and  _85
REMARK   36  A    between atoms: _85  and  _86
REMARK   37  A    between atoms: _85  and  _88
REMARK   38  A    between atoms: _88  and  _89
REMARK   39  A    between atoms: _92  and  _94
REMARK   40  A    between atoms: _94  and  _95
REMARK   41  A    between atoms: _94  and  _97
REMARK   42  A    between atoms: _100  and  _102
REMARK   43  A    between atoms: _102  and  _103
REMARK   44  A    between atoms: _102  and  _105
REMARK   45  A    between atoms: _105  and  _106
REMARK   46  A    between atoms: _109  and  _111
REMARK   47  A    between atoms: _111  and  _112
REMARK   48  A    between atoms: _111  and  _114
REMARK   49  A    between atoms: _114  and  _115
REMARK   50  A    between atoms: _115  and  _116
REMARK   51  A    between atoms: _116  and  _117
REMARK   52  A    between atoms: _117  and  _118
REMARK   53  A    between atoms: _122  and  _124
REMARK   54  A    between atoms: _124  and  _125
REMARK   55  A    between atoms: _124  and  _127
REMARK   56  A    between atoms: _127  and  _128
REMARK   57  A    between atoms: _128  and  _129
REMARK   58  A    between atoms: _131  and  _133
REMARK   59  A    between atoms: _133  and  _134
REMARK   60  A    between atoms: _133  and  _136
REMARK   61  A    between atoms: _136  and  _137
REMARK   62  A    between atoms: _140  and  _142
REMARK   63  A    between atoms: _142  and  _143
REMARK   64  A    between atoms: _145  and  _147
REMARK   65  A    between atoms: _147  and  _148
REMARK   66  A    between atoms: _150  and  _152
REMARK   67  A    between atoms: _152  and  _153
REMARK   68  A    between atoms: _152  and  _155
REMARK   69  A    between atoms: _155  and  _156
REMARK   70  A    between atoms: _159  and  _161
REMARK   71  A    between atoms: _161  and  _162
REMARK   72  A    between atoms: _164  and  _166
REMARK   73  A    between atoms: _166  and  _167
REMARK   74  A    between atoms: _169  and  _171
REMARK   75  A    between atoms: _171  and  _172
REMARK   76  A    between atoms: _171  and  _174
REMARK   77  A    between atoms: _174  and  _175
REMARK   78  A    between atoms: _181  and  _183
REMARK   79  A    between atoms: _183  and  _184
REMARK   80  A    between atoms: _183  and  _186
REMARK   81  A    between atoms: _186  and  _187
REMARK   82  A    between atoms: _190  and  _192
REMARK   83  A    between atoms: _192  and  _193
REMARK   84  A    between atoms: _192  and  _195
REMARK   85  A    between atoms: _195  and  _196
REMARK   86  A    between atoms: _200  and  _201
REMARK   87  A    between atoms: _206  and  _208
REMARK   88  A    between atoms: _208  and  _209
REMARK   89  A    between atoms: _208  and  _211
REMARK   90  A    between atoms: _211  and  _212
REMARK   91  A    between atoms: _216  and  _217
REMARK   92  A    between atoms: _222  and  _224
REMARK   93  A    between atoms: _224  and  _225
REMARK   94  A    between atoms: _224  and  _227
REMARK   95  A    between atoms: _227  and  _228
REMARK   96  A    between atoms: _234  and  _236
REMARK   97  A    between atoms: _236  and  _237
REMARK   98  A    between atoms: _236  and  _239
REMARK   99  A    between atoms: _239  and  _240
REMARK  100  A    between atoms: _245  and  _247
REMARK  101  A    between atoms: _247  and  _248
REMARK  102  A    between atoms: _247  and  _250
REMARK  103  A    between atoms: _250  and  _251
REMARK  104  A    between atoms: _254  and  _256
REMARK  105  A    between atoms: _256  and  _257
REMARK  106  A    between atoms: _256  and  _259
REMARK  107  A    between atoms: _259  and  _260
REMARK  108  A    between atoms: _263  and  _265
REMARK  109  A    between atoms: _265  and  _266
REMARK  110  A    between atoms: _268  and  _270
REMARK  111  A    between atoms: _270  and  _271
REMARK  112  A    between atoms: _270  and  _273
REMARK  113  A    between atoms: _273  and  _274
REMARK  114  A    between atoms: _274  and  _275
REMARK  115  A    between atoms: _275  and  _276
REMARK  116  A    between atoms: _285  and  _287
REMARK  117  A    between atoms: _287  and  _288
REMARK  118  A    between atoms: _287  and  _290
REMARK  119  A    between atoms: _290  and  _291
REMARK  120  A    between atoms: _296  and  _298
REMARK  121  A    between atoms: _298  and  _299
REMARK  122  A    between atoms: _298  and  _301
REMARK  123  A    between atoms: _301  and  _302
REMARK  124  A    between atoms: _302  and  _303
REMARK  125  A    between atoms: _303  and  _304
REMARK  126  A    between atoms: _313  and  _315
REMARK  127  A    between atoms: _315  and  _316
REMARK  128  A    between atoms: _315  and  _318
REMARK  129  A    between atoms: _318  and  _319
REMARK  130  A    between atoms: _322  and  _324
REMARK  131  A    between atoms: _324  and  _325
REMARK  132  A    between atoms: _324  and  _327
REMARK  133  A    between atoms: _327  and  _328
REMARK  134  A    between atoms: _331  and  _333
REMARK  135  A    between atoms: _333  and  _334
REMARK  136  A    between atoms: _333  and  _336
REMARK  137  A    between atoms: _336  and  _337
REMARK  138  A    between atoms: _340  and  _342
REMARK  139  A    between atoms: _342  and  _343
REMARK  140  A    between atoms: _342  and  _345
REMARK  141  A    between atoms: _345  and  _346
REMARK  142  A    between atoms: _349  and  _351
REMARK  143  A    between atoms: _351  and  _352
REMARK  144  A    between atoms: _354  and  _356
REMARK  145  A    between atoms: _356  and  _357
REMARK  146  A    between atoms: _360  and  _362
REMARK  147  A    between atoms: _362  and  _363
REMARK  148  A    between atoms: _362  and  _365
REMARK  149  A    between atoms: _365  and  _366
REMARK  150  A    between atoms: _369  and  _371
REMARK  151  A    between atoms: _371  and  _372
REMARK  152  A    between atoms: _371  and  _374
REMARK  153  A    between atoms: _374  and  _375
REMARK  154  A    between atoms: _378  and  _380
REMARK  155  A    between atoms: _380  and  _381
REMARK  156  A    between atoms: _380  and  _383
REMARK  157  A    between atoms: _383  and  _384
REMARK  158  A    between atoms: _387  and  _389
REMARK  159  A    between atoms: _389  and  _390
REMARK  160  A    between atoms: _389  and  _392
REMARK  161  A    between atoms: _395  and  _397
REMARK  162  A    between atoms: _397  and  _398
REMARK  163  A    between atoms: _397  and  _400
REMARK  164  A    between atoms: _400  and  _401
REMARK  165  A    between atoms: _404  and  _406
REMARK  166  A    between atoms: _406  and  _407
REMARK  167  A    between atoms: _406  and  _409
REMARK  168  A    between atoms: _409  and  _410
REMARK  169  A    between atoms: _410  and  _411
REMARK  170  A    between atoms: _411  and  _412
REMARK  171  A    between atoms: _412  and  _413
REMARK  172  A    between atoms: _417  and  _419
REMARK  173  A    between atoms: _419  and  _420
REMARK  174  A    between atoms: _419  and  _422
REMARK  175  A    between atoms: _422  and  _423
REMARK  176  A    between atoms: _423  and  _424
REMARK  177  A    between atoms: _426  and  _428
REMARK  178  A    between atoms: _428  and  _429
REMARK  179  A    between atoms: _428  and  _431
REMARK  180  A    between atoms: _431  and  _432
REMARK  181  A    between atoms: _435  and  _437
REMARK  182  A    between atoms: _437  and  _438
REMARK  183  A    between atoms: _440  and  _442
REMARK  184  A    between atoms: _442  and  _443
REMARK  185  A    between atoms: _445  and  _447
REMARK  186  A    between atoms: _447  and  _448
REMARK  187  A    between atoms: _447  and  _450
REMARK  188  A    between atoms: _450  and  _451
REMARK  189  A    between atoms: _454  and  _456
REMARK  190  A    between atoms: _456  and  _457
REMARK  191  A    between atoms: _459  and  _461
REMARK  192  A    between atoms: _461  and  _462
REMARK  193  A    between atoms: _464  and  _466
REMARK  194  A    between atoms: _466  and  _467
REMARK  195  A    between atoms: _466  and  _469
REMARK  196  A    between atoms: _469  and  _470
REMARK  197  A    between atoms: _476  and  _478
REMARK  198  A    between atoms: _478  and  _479
REMARK  199  A    between atoms: _478  and  _481
REMARK  200  A    between atoms: _481  and  _482
REMARK  201  A    between atoms: _485  and  _487
REMARK  202  A    between atoms: _487  and  _488
REMARK  203  A    between atoms: _487  and  _490
REMARK  204  A    between atoms: _490  and  _491
REMARK  205  A    between atoms: _495  and  _496
REMARK  206  A    between atoms: _501  and  _503
REMARK  207  A    between atoms: _503  and  _504
REMARK  208  A    between atoms: _503  and  _506
REMARK  209  A    between atoms: _506  and  _507
REMARK  210  A    between atoms: _511  and  _512
REMARK  211  A    between atoms: _517  and  _519
REMARK  212  A    between atoms: _519  and  _520
REMARK  213  A    between atoms: _519  and  _522
REMARK  214  A    between atoms: _522  and  _523
REMARK  215  A    between atoms: _529  and  _531
REMARK  216  A    between atoms: _531  and  _532
REMARK  217  A    between atoms: _531  and  _534
REMARK  218  A    between atoms: _534  and  _535
REMARK  219  A    between atoms: _540  and  _542
REMARK  220  A    between atoms: _542  and  _543
REMARK  221  A    between atoms: _542  and  _545
REMARK  222  A    between atoms: _545  and  _546
REMARK  223  A    between atoms: _549  and  _551
REMARK  224  A    between atoms: _551  and  _552
REMARK  225  A    between atoms: _551  and  _554
REMARK  226  A    between atoms: _554  and  _555
REMARK  227  A    between atoms: _558  and  _560
REMARK  228  A    between atoms: _560  and  _561
REMARK  229  A    between atoms: _563  and  _565
REMARK  230  A    between atoms: _565  and  _566
REMARK  231  A    between atoms: _565  and  _568
REMARK  232  A    between atoms: _568  and  _569
REMARK  233  A    between atoms: _569  and  _570
REMARK  234  A    between atoms: _570  and  _571
REMARK  235  A    between atoms: _580  and  _582
REMARK  236  A    between atoms: _582  and  _583
REMARK  237  A    between atoms: _582  and  _585
REMARK  238  A    between atoms: _585  and  _586
REMARK                            x       y       z     vdW  Elec       q    Type
REMARK                         _______ _______ _______ _____ _____    ______ ____
ROOT
ATOM      1  O   HOH     1      -8.966  19.508  41.050  0.00  0.00    +0.000 OA
ENDROOT
TORSDOF 0
REMARK  Name = ../refined-set-2016/1bv7/1bv7_pocket.pdb
REMARK  238 active torsions:
REMARK  status: ('A' for Active; 'I' for Inactive)
REMARK    1  A    between atoms: _1  and  _3
REMARK    2  A    between atoms: _3  and  _4
REMARK    3  A    between atoms: _3  and  _6
REMARK    4  A    between atoms: _6  and  _7
REMARK    5  A    between atoms: _7  and  _8
REMARK    6  A    between atoms: _8  and  _9
REMARK    7  A    between atoms: _18  and  _20
REMARK    8  A    between atoms: _20  and  _21
REMARK    9  A    between atoms: _20  and  _23
REMARK   10  A    between atoms: _23  and  _24
REMARK   11  A    between atoms: _27  and  _29
REMARK   12  A    between atoms: _29  and  _30
REMARK   13  A    between atoms: _29  and  _32
REMARK   14  A    between atoms: _32  and  _33
REMARK   15  A    between atoms: _36  and  _38
REMARK   16  A    between atoms: _38  and  _39
REMARK   17  A    between atoms: _38  and  _41
REMARK   18  A    between atoms: _41  and  _42
REMARK   19  A    between atoms: _45  and  _47
REMARK   20  A    between atoms: _47  and  _48
REMARK   21  A    between atoms: _47  and  _50
REMARK   22  A    between atoms: _50  and  _51
REMARK   23  A    between atoms: _54  and  _56
REMARK   24  A    between atoms: _56  and  _57
REMARK   25  A    between atoms: _59  and  _61
REMARK   26  A    between atoms: _61  and  _62
REMARK   27  A    between atoms: _65  and  _67
REMARK   28  A    between atoms: _67  and  _68
REMARK   29  A    between atoms: _67  and  _70
REMARK   30  A    between atoms: _70  and  _71
REMARK   31  A    between atoms: _74  and  _76
REMARK   32  A    between atoms: _76  and  _77
REMARK   33  A    between atoms: _76  and  _79
REMARK   34  A    between atoms: _79  and  _80
REMARK   35  A    between atoms: _83  and  _85
REMARK   36  A    between atoms: _85  and  _86
REMARK   37  A    between atoms: _85  and  _88
REMARK   38  A    between atoms: _88  and  _89
REMARK   39  A    between atoms: _92  and  _94
REMARK   40  A    between atoms: _94  and  _95
REMARK   41  A    between atoms: _94  and  _97
REMARK   42  A    between atoms: _100  and  _102
REMARK   43  A    between atoms: _102  and  _103
REMARK   44  A    between atoms: _102  and  _105
REMARK   45  A    between atoms: _105  and  _106
REMARK   46  A    between atoms: _109  and  _111
REMARK   47  A    between atoms: _111  and  _112
REMARK   48  A    between atoms: _111  and  _114
REMARK   49  A    between atoms: _114  and  _115
REMARK   50  A    between atoms: _115  and  _116
REMARK   51  A    between atoms: _116  and  _117
REMARK   52  A    between atoms: _117  and  _118
REMARK   53  A    between atoms: _122  and  _124
REMARK   54  A    between atoms: _124  and  _125
REMARK   55  A    between atoms: _124  and  _127
REMARK   56  A    between atoms: _127  and  _128
REMARK   57  A    between atoms: _128  and  _129
REMARK   58  A    between atoms: _131  and  _133
REMARK   59  A    between atoms: _133  and  _134
REMARK   60  A    between atoms: _133  and  _136
REMARK   61  A    between atoms: _136  and  _137
REMARK   62  A    between atoms: _140  and  _142
REMARK   63  A    between atoms: _142  and  _143
REMARK   64  A    between atoms: _145  and  _147
REMARK   65  A    between atoms: _147  and  _148
REMARK   66  A    between atoms: _150  and  _152
REMARK   67  A    between atoms: _152  and  _153
REMARK   68  A    between atoms: _152  and  _155
REMARK   69  A    between atoms: _155  and  _156
REMARK   70  A    between atoms: _159  and  _161
REMARK   71  A    between atoms: _161  and  _162
REMARK   72  A    between atoms: _164  and  _166
REMARK   73  A    between atoms: _166  and  _167
REMARK   74  A    between atoms: _169  and  _171
REMARK   75  A    between atoms: _171  and  _172
REMARK   76  A    between atoms: _171  and  _174
REMARK   77  A    between atoms: _174  and  _175
REMARK   78  A    between atoms: _181  and  _183
REMARK   79  A    between atoms: _183  and  _184
REMARK   80  A    between atoms: _183  and  _186
REMARK   81  A    between atoms: _186  and  _187
REMARK   82  A    between atoms: _190  and  _192
REMARK   83  A    between atoms: _192  and  _193
REMARK   84  A    between atoms: _192  and  _195
REMARK   85  A    between atoms: _195  and  _196
REMARK   86  A    between atoms: _200  and  _201
REMARK   87  A    between atoms: _206  and  _208
REMARK   88  A    between atoms: _208  and  _209
REMARK   89  A    between atoms: _208  and  _211
REMARK   90  A    between atoms: _211  and  _212
REMARK   91  A    between atoms: _216  and  _217
REMARK   92  A    between atoms: _222  and  _224
REMARK   93  A    between atoms: _224  and  _225
REMARK   94  A    between atoms: _224  and  _227
REMARK   95  A    between atoms: _227  and  _228
REMARK   96  A    between atoms: _234  and  _236
REMARK   97  A    between atoms: _236  and  _237
REMARK   98  A    between atoms: _236  and  _239
REMARK   99  A    between atoms: _239  and  _240
REMARK  100  A    between atoms: _245  and  _247
REMARK  101  A    between atoms: _247  and  _248
REMARK  102  A    between atoms: _247  and  _250
REMARK  103  A    between atoms: _250  and  _251
REMARK  104  A    between atoms: _254  and  _256
REMARK  105  A    between atoms: _256  and  _257
REMARK  106  A    between atoms: _256  and  _259
REMARK  107  A    between atoms: _259  and  _260
REMARK  108  A    between atoms: _263  and  _265
REMARK  109  A    between atoms: _265  and  _266
REMARK  110  A    between atoms: _268  and  _270
REMARK  111  A    between atoms: _270  and  _271
REMARK  112  A    between atoms: _270  and  _273
REMARK  113  A    between atoms: _273  and  _274
REMARK  114  A    between atoms: _274  and  _275
REMARK  115  A    between atoms: _275  and  _276
REMARK  116  A    between atoms: _285  and  _287
REMARK  117  A    between atoms: _287  and  _288
REMARK  118  A    between atoms: _287  and  _290
REMARK  119  A    between atoms: _290  and  _291
REMARK  120  A    between atoms: _296  and  _298
REMARK  121  A    between atoms: _298  and  _299
REMARK  122  A    between atoms: _298  and  _301
REMARK  123  A    between atoms: _301  and  _302
REMARK  124  A    between atoms: _302  and  _303
REMARK  125  A    between atoms: _303  and  _304
REMARK  126  A    between atoms: _313  and  _315
REMARK  127  A    between atoms: _315  and  _316
REMARK  128  A    between atoms: _315  and  _318
REMARK  129  A    between atoms: _318  and  _319
REMARK  130  A    between atoms: _322  and  _324
REMARK  131  A    between atoms: _324  and  _325
REMARK  132  A    between atoms: _324  and  _327
REMARK  133  A    between atoms: _327  and  _328
REMARK  134  A    between atoms: _331  and  _333
REMARK  135  A    between atoms: _333  and  _334
REMARK  136  A    between atoms: _333  and  _336
REMARK  137  A    between atoms: _336  and  _337
REMARK  138  A    between atoms: _340  and  _342
REMARK  139  A    between atoms: _342  and  _343
REMARK  140  A    between atoms: _342  and  _345
REMARK  141  A    between atoms: _345  and  _346
REMARK  142  A    between atoms: _349  and  _351
REMARK  143  A    between atoms: _351  and  _352
REMARK  144  A    between atoms: _354  and  _356
REMARK  145  A    between atoms: _356  and  _357
REMARK  146  A    between atoms: _360  and  _362
REMARK  147  A    between atoms: _362  and  _363
REMARK  148  A    between atoms: _362  and  _365
REMARK  149  A    between atoms: _365  and  _366
REMARK  150  A    between atoms: _369  and  _371
REMARK  151  A    between atoms: _371  and  _372
REMARK  152  A    between atoms: _371  and  _374
REMARK  153  A    between atoms: _374  and  _375
REMARK  154  A    between atoms: _378  and  _380
REMARK  155  A    between atoms: _380  and  _381
REMARK  156  A    between atoms: _380  and  _383
REMARK  157  A    between atoms: _383  and  _384
REMARK  158  A    between atoms: _387  and  _389
REMARK  159  A    between atoms: _389  and  _390
REMARK  160  A    between atoms: _389  and  _392
REMARK  161  A    between atoms: _395  and  _397
REMARK  162  A    between atoms: _397  and  _398
REMARK  163  A    between atoms: _397  and  _400
REMARK  164  A    between atoms: _400  and  _401
REMARK  165  A    between atoms: _404  and  _406
REMARK  166  A    between atoms: _406  and  _407
REMARK  167  A    between atoms: _406  and  _409
REMARK  168  A    between atoms: _409  and  _410
REMARK  169  A    between atoms: _410  and  _411
REMARK  170  A    between atoms: _411  and  _412
REMARK  171  A    between atoms: _412  and  _413
REMARK  172  A    between atoms: _417  and  _419
REMARK  173  A    between atoms: _419  and  _420
REMARK  174  A    between atoms: _419  and  _422
REMARK  175  A    between atoms: _422  and  _423
REMARK  176  A    between atoms: _423  and  _424
REMARK  177  A    between atoms: _426  and  _428
REMARK  178  A    between atoms: _428  and  _429
REMARK  179  A    between atoms: _428  and  _431
REMARK  180  A    between atoms: _431  and  _432
REMARK  181  A    between atoms: _435  and  _437
REMARK  182  A    between atoms: _437  and  _438
REMARK  183  A    between atoms: _440  and  _442
REMARK  184  A    between atoms: _442  and  _443
REMARK  185  A    between atoms: _445  and  _447
REMARK  186  A    between atoms: _447  and  _448
REMARK  187  A    between atoms: _447  and  _450
REMARK  188  A    between atoms: _450  and  _451
REMARK  189  A    between atoms: _454  and  _456
REMARK  190  A    between atoms: _456  and  _457
REMARK  191  A    between atoms: _459  and  _461
REMARK  192  A    between atoms: _461  and  _462
REMARK  193  A    between atoms: _464  and  _466
REMARK  194  A    between atoms: _466  and  _467
REMARK  195  A    between atoms: _466  and  _469
REMARK  196  A    between atoms: _469  and  _470
REMARK  197  A    between atoms: _476  and  _478
REMARK  198  A    between atoms: _478  and  _479
REMARK  199  A    between atoms: _478  and  _481
REMARK  200  A    between atoms: _481  and  _482
REMARK  201  A    between atoms: _485  and  _487
REMARK  202  A    between atoms: _487  and  _488
REMARK  203  A    between atoms: _487  and  _490
REMARK  204  A    between atoms: _490  and  _491
REMARK  205  A    between atoms: _495  and  _496
REMARK  206  A    between atoms: _501  and  _503
REMARK  207  A    between atoms: _503  and  _504
REMARK  208  A    between atoms: _503  and  _506
REMARK  209  A    between atoms: _506  and  _507
REMARK  210  A    between atoms: _511  and  _512
REMARK  211  A    between atoms: _517  and  _519
REMARK  212  A    between atoms: _519  and  _520
REMARK  213  A    between atoms: _519  and  _522
REMARK  214  A    between atoms: _522  and  _523
REMARK  215  A    between atoms: _529  and  _531
REMARK  216  A    between atoms: _531  and  _532
REMARK  217  A    between atoms: _531  and  _534
REMARK  218  A    between atoms: _534  and  _535
REMARK  219  A    between atoms: _540  and  _542
REMARK  220  A    between atoms: _542  and  _543
REMARK  221  A    between atoms: _542  and  _545
REMARK  222  A    between atoms: _545  and  _546
REMARK  223  A    between atoms: _549  and  _551
REMARK  224  A    between atoms: _551  and  _552
REMARK  225  A    between atoms: _551  and  _554
REMARK  226  A    between atoms: _554  and  _555
REMARK  227  A    between atoms: _558  and  _560
REMARK  228  A    between atoms: _560  and  _561
REMARK  229  A    between atoms: _563  and  _565
REMARK  230  A    between atoms: _565  and  _566
REMARK  231  A    between atoms: _565  and  _568
REMARK  232  A    between atoms: _568  and  _569
REMARK  233  A    between atoms: _569  and  _570
REMARK  234  A    between atoms: _570  and  _571
REMARK  235  A    between atoms: _580  and  _582
REMARK  236  A    between atoms: _582  and  _583
REMARK  237  A    between atoms: _582  and  _585
REMARK  238  A    between atoms: _585  and  _586
REMARK                            x       y       z     vdW  Elec       q    Type
REMARK                         _______ _______ _______ _____ _____    ______ ____
ROOT
ATOM      1  O   HOH     1     -11.560   8.393  38.912  0.00  0.00    +0.000 OA
ENDROOT
TORSDOF 0
REMARK  Name = ../refined-set-2016/1bv7/1bv7_pocket.pdb
REMARK  238 active torsions:
REMARK  status: ('A' for Active; 'I' for Inactive)
REMARK    1  A    between atoms: _1  and  _3
REMARK    2  A    between atoms: _3  and  _4
REMARK    3  A    between atoms: _3  and  _6
REMARK    4  A    between atoms: _6  and  _7
REMARK    5  A    between atoms: _7  and  _8
REMARK    6  A    between atoms: _8  and  _9
REMARK    7  A    between atoms: _18  and  _20
REMARK    8  A    between atoms: _20  and  _21
REMARK    9  A    between atoms: _20  and  _23
REMARK   10  A    between atoms: _23  and  _24
REMARK   11  A    between atoms: _27  and  _29
REMARK   12  A    between atoms: _29  and  _30
REMARK   13  A    between atoms: _29  and  _32
REMARK   14  A    between atoms: _32  and  _33
REMARK   15  A    between atoms: _36  and  _38
REMARK   16  A    between atoms: _38  and  _39
REMARK   17  A    between atoms: _38  and  _41
REMARK   18  A    between atoms: _41  and  _42
REMARK   19  A    between atoms: _45  and  _47
REMARK   20  A    between atoms: _47  and  _48
REMARK   21  A    between atoms: _47  and  _50
REMARK   22  A    between atoms: _50  and  _51
REMARK   23  A    between atoms: _54  and  _56
REMARK   24  A    between atoms: _56  and  _57
REMARK   25  A    between atoms: _59  and  _61
REMARK   26  A    between atoms: _61  and  _62
REMARK   27  A    between atoms: _65  and  _67
REMARK   28  A    between atoms: _67  and  _68
REMARK   29  A    between atoms: _67  and  _70
REMARK   30  A    between atoms: _70  and  _71
REMARK   31  A    between atoms: _74  and  _76
REMARK   32  A    between atoms: _76  and  _77
REMARK   33  A    between atoms: _76  and  _79
REMARK   34  A    between atoms: _79  and  _80
REMARK   35  A    between atoms: _83  and  _85
REMARK   36  A    between atoms: _85  and  _86
REMARK   37  A    between atoms: _85  and  _88
REMARK   38  A    between atoms: _88  and  _89
REMARK   39  A    between atoms: _92  and  _94
REMARK   40  A    between atoms: _94  and  _95
REMARK   41  A    between atoms: _94  and  _97
REMARK   42  A    between atoms: _100  and  _102
REMARK   43  A    between atoms: _102  and  _103
REMARK   44  A    between atoms: _102  and  _105
REMARK   45  A    between atoms: _105  and  _106
REMARK   46  A    between atoms: _109  and  _111
REMARK   47  A    between atoms: _111  and  _112
REMARK   48  A    between atoms: _111  and  _114
REMARK   49  A    between atoms: _114  and  _115
REMARK   50  A    between atoms: _115  and  _116
REMARK   51  A    between atoms: _116  and  _117
REMARK   52  A    between atoms: _117  and  _118
REMARK   53  A    between atoms: _122  and  _124
REMARK   54  A    between atoms: _124  and  _125
REMARK   55  A    between atoms: _124  and  _127
REMARK   56  A    between atoms: _127  and  _128
REMARK   57  A    between atoms: _128  and  _129
REMARK   58  A    between atoms: _131  and  _133
REMARK   59  A    between atoms: _133  and  _134
REMARK   60  A    between atoms: _133  and  _136
REMARK   61  A    between atoms: _136  and  _137
REMARK   62  A    between atoms: _140  and  _142
REMARK   63  A    between atoms: _142  and  _143
REMARK   64  A    between atoms: _145  and  _147
REMARK   65  A    between atoms: _147  and  _148
REMARK   66  A    between atoms: _150  and  _152
REMARK   67  A    between atoms: _152  and  _153
REMARK   68  A    between atoms: _152  and  _155
REMARK   69  A    between atoms: _155  and  _156
REMARK   70  A    between atoms: _159  and  _161
REMARK   71  A    between atoms: _161  and  _162
REMARK   72  A    between atoms: _164  and  _166
REMARK   73  A    between atoms: _166  and  _167
REMARK   74  A    between atoms: _169  and  _171
REMARK   75  A    between atoms: _171  and  _172
REMARK   76  A    between atoms: _171  and  _174
REMARK   77  A    between atoms: _174  and  _175
REMARK   78  A    between atoms: _181  and  _183
REMARK   79  A    between atoms: _183  and  _184
REMARK   80  A    between atoms: _183  and  _186
REMARK   81  A    between atoms: _186  and  _187
REMARK   82  A    between atoms: _190  and  _192
REMARK   83  A    between atoms: _192  and  _193
REMARK   84  A    between atoms: _192  and  _195
REMARK   85  A    between atoms: _195  and  _196
REMARK   86  A    between atoms: _200  and  _201
REMARK   87  A    between atoms: _206  and  _208
REMARK   88  A    between atoms: _208  and  _209
REMARK   89  A    between atoms: _208  and  _211
REMARK   90  A    between atoms: _211  and  _212
REMARK   91  A    between atoms: _216  and  _217
REMARK   92  A    between atoms: _222  and  _224
REMARK   93  A    between atoms: _224  and  _225
REMARK   94  A    between atoms: _224  and  _227
REMARK   95  A    between atoms: _227  and  _228
REMARK   96  A    between atoms: _234  and  _236
REMARK   97  A    between atoms: _236  and  _237
REMARK   98  A    between atoms: _236  and  _239
REMARK   99  A    between atoms: _239  and  _240
REMARK  100  A    between atoms: _245  and  _247
REMARK  101  A    between atoms: _247  and  _248
REMARK  102  A    between atoms: _247  and  _250
REMARK  103  A    between atoms: _250  and  _251
REMARK  104  A    between atoms: _254  and  _256
REMARK  105  A    between atoms: _256  and  _257
REMARK  106  A    between atoms: _256  and  _259
REMARK  107  A    between atoms: _259  and  _260
REMARK  108  A    between atoms: _263  and  _265
REMARK  109  A    between atoms: _265  and  _266
REMARK  110  A    between atoms: _268  and  _270
REMARK  111  A    between atoms: _270  and  _271
REMARK  112  A    between atoms: _270  and  _273
REMARK  113  A    between atoms: _273  and  _274
REMARK  114  A    between atoms: _274  and  _275
REMARK  115  A    between atoms: _275  and  _276
REMARK  116  A    between atoms: _285  and  _287
REMARK  117  A    between atoms: _287  and  _288
REMARK  118  A    between atoms: _287  and  _290
REMARK  119  A    between atoms: _290  and  _291
REMARK  120  A    between atoms: _296  and  _298
REMARK  121  A    between atoms: _298  and  _299
REMARK  122  A    between atoms: _298  and  _301
REMARK  123  A    between atoms: _301  and  _302
REMARK  124  A    between atoms: _302  and  _303
REMARK  125  A    between atoms: _303  and  _304
REMARK  126  A    between atoms: _313  and  _315
REMARK  127  A    between atoms: _315  and  _316
REMARK  128  A    between atoms: _315  and  _318
REMARK  129  A    between atoms: _318  and  _319
REMARK  130  A    between atoms: _322  and  _324
REMARK  131  A    between atoms: _324  and  _325
REMARK  132  A    between atoms: _324  and  _327
REMARK  133  A    between atoms: _327  and  _328
REMARK  134  A    between atoms: _331  and  _333
REMARK  135  A    between atoms: _333  and  _334
REMARK  136  A    between atoms: _333  and  _336
REMARK  137  A    between atoms: _336  and  _337
REMARK  138  A    between atoms: _340  and  _342
REMARK  139  A    between atoms: _342  and  _343
REMARK  140  A    between atoms: _342  and  _345
REMARK  141  A    between atoms: _345  and  _346
REMARK  142  A    between atoms: _349  and  _351
REMARK  143  A    between atoms: _351  and  _352
REMARK  144  A    between atoms: _354  and  _356
REMARK  145  A    between atoms: _356  and  _357
REMARK  146  A    between atoms: _360  and  _362
REMARK  147  A    between atoms: _362  and  _363
REMARK  148  A    between atoms: _362  and  _365
REMARK  149  A    between atoms: _365  and  _366
REMARK  150  A    between atoms: _369  and  _371
REMARK  151  A    between atoms: _371  and  _372
REMARK  152  A    between atoms: _371  and  _374
REMARK  153  A    between atoms: _374  and  _375
REMARK  154  A    between atoms: _378  and  _380
REMARK  155  A    between atoms: _380  and  _381
REMARK  156  A    between atoms: _380  and  _383
REMARK  157  A    between atoms: _383  and  _384
REMARK  158  A    between atoms: _387  and  _389
REMARK  159  A    between atoms: _389  and  _390
REMARK  160  A    between atoms: _389  and  _392
REMARK  161  A    between atoms: _395  and  _397
REMARK  162  A    between atoms: _397  and  _398
REMARK  163  A    between atoms: _397  and  _400
REMARK  164  A    between atoms: _400  and  _401
REMARK  165  A    between atoms: _404  and  _406
REMARK  166  A    between atoms: _406  and  _407
REMARK  167  A    between atoms: _406  and  _409
REMARK  168  A    between atoms: _409  and  _410
REMARK  169  A    between atoms: _410  and  _411
REMARK  170  A    between atoms: _411  and  _412
REMARK  171  A    between atoms: _412  and  _413
REMARK  172  A    between atoms: _417  and  _419
REMARK  173  A    between atoms: _419  and  _420
REMARK  174  A    between atoms: _419  and  _422
REMARK  175  A    between atoms: _422  and  _423
REMARK  176  A    between atoms: _423  and  _424
REMARK  177  A    between atoms: _426  and  _428
REMARK  178  A    between atoms: _428  and  _429
REMARK  179  A    between atoms: _428  and  _431
REMARK  180  A    between atoms: _431  and  _432
REMARK  181  A    between atoms: _435  and  _437
REMARK  182  A    between atoms: _437  and  _438
REMARK  183  A    between atoms: _440  and  _442
REMARK  184  A    between atoms: _442  and  _443
REMARK  185  A    between atoms: _445  and  _447
REMARK  186  A    between atoms: _447  and  _448
REMARK  187  A    between atoms: _447  and  _450
REMARK  188  A    between atoms: _450  and  _451
REMARK  189  A    between atoms: _454  and  _456
REMARK  190  A    between atoms: _456  and  _457
REMARK  191  A    between atoms: _459  and  _461
REMARK  192  A    between atoms: _461  and  _462
REMARK  193  A    between atoms: _464  and  _466
REMARK  194  A    between atoms: _466  and  _467
REMARK  195  A    between atoms: _466  and  _469
REMARK  196  A    between atoms: _469  and  _470
REMARK  197  A    between atoms: _476  and  _478
REMARK  198  A    between atoms: _478  and  _479
REMARK  199  A    between atoms: _478  and  _481
REMARK  200  A    between atoms: _481  and  _482
REMARK  201  A    between atoms: _485  and  _487
REMARK  202  A    between atoms: _487  and  _488
REMARK  203  A    between atoms: _487  and  _490
REMARK  204  A    between atoms: _490  and  _491
REMARK  205  A    between atoms: _495  and  _496
REMARK  206  A    between atoms: _501  and  _503
REMARK  207  A    between atoms: _503  and  _504
REMARK  208  A    between atoms: _503  and  _506
REMARK  209  A    between atoms: _506  and  _507
REMARK  210  A    between atoms: _511  and  _512
REMARK  211  A    between atoms: _517  and  _519
REMARK  212  A    between atoms: _519  and  _520
REMARK  213  A    between atoms: _519  and  _522
REMARK  214  A    between atoms: _522  and  _523
REMARK  215  A    between atoms: _529  and  _531
REMARK  216  A    between atoms: _531  and  _532
REMARK  217  A    between atoms: _531  and  _534
REMARK  218  A    between atoms: _534  and  _535
REMARK  219  A    between atoms: _540  and  _542
REMARK  220  A    between atoms: _542  and  _543
REMARK  221  A    between atoms: _542  and  _545
REMARK  222  A    between atoms: _545  and  _546
REMARK  223  A    between atoms: _549  and  _551
REMARK  224  A    between atoms: _551  and  _552
REMARK  225  A    between atoms: _551  and  _554
REMARK  226  A    between atoms: _554  and  _555
REMARK  227  A    between atoms: _558  and  _560
REMARK  228  A    between atoms: _560  and  _561
REMARK  229  A    between atoms: _563  and  _565
REMARK  230  A    between atoms: _565  and  _566
REMARK  231  A    between atoms: _565  and  _568
REMARK  232  A    between atoms: _568  and  _569
REMARK  233  A    between atoms: _569  and  _570
REMARK  234  A    between atoms: _570  and  _571
REMARK  235  A    between atoms: _580  and  _582
REMARK  236  A    between atoms: _582  and  _583
REMARK  237  A    between atoms: _582  and  _585
REMARK  238  A    between atoms: _585  and  _586
REMARK                            x       y       z     vdW  Elec       q    Type
REMARK                         _______ _______ _______ _____ _____    ______ ____
ROOT
ATOM      1  O   HOH     1      -7.129  19.434  22.596  0.00  0.00    +0.000 OA
ENDROOT
TORSDOF 0
REMARK  Name = ../refined-set-2016/1bv7/1bv7_pocket.pdb
REMARK  238 active torsions:
REMARK  status: ('A' for Active; 'I' for Inactive)
REMARK    1  A    between atoms: _1  and  _3
REMARK    2  A    between atoms: _3  and  _4
REMARK    3  A    between atoms: _3  and  _6
REMARK    4  A    between atoms: _6  and  _7
REMARK    5  A    between atoms: _7  and  _8
REMARK    6  A    between atoms: _8  and  _9
REMARK    7  A    between atoms: _18  and  _20
REMARK    8  A    between atoms: _20  and  _21
REMARK    9  A    between atoms: _20  and  _23
REMARK   10  A    between atoms: _23  and  _24
REMARK   11  A    between atoms: _27  and  _29
REMARK   12  A    between atoms: _29  and  _30
REMARK   13  A    between atoms: _29  and  _32
REMARK   14  A    between atoms: _32  and  _33
REMARK   15  A    between atoms: _36  and  _38
REMARK   16  A    between atoms: _38  and  _39
REMARK   17  A    between atoms: _38  and  _41
REMARK   18  A    between atoms: _41  and  _42
REMARK   19  A    between atoms: _45  and  _47
REMARK   20  A    between atoms: _47  and  _48
REMARK   21  A    between atoms: _47  and  _50
REMARK   22  A    between atoms: _50  and  _51
REMARK   23  A    between atoms: _54  and  _56
REMARK   24  A    between atoms: _56  and  _57
REMARK   25  A    between atoms: _59  and  _61
REMARK   26  A    between atoms: _61  and  _62
REMARK   27  A    between atoms: _65  and  _67
REMARK   28  A    between atoms: _67  and  _68
REMARK   29  A    between atoms: _67  and  _70
REMARK   30  A    between atoms: _70  and  _71
REMARK   31  A    between atoms: _74  and  _76
REMARK   32  A    between atoms: _76  and  _77
REMARK   33  A    between atoms: _76  and  _79
REMARK   34  A    between atoms: _79  and  _80
REMARK   35  A    between atoms: _83  and  _85
REMARK   36  A    between atoms: _85  and  _86
REMARK   37  A    between atoms: _85  and  _88
REMARK   38  A    between atoms: _88  and  _89
REMARK   39  A    between atoms: _92  and  _94
REMARK   40  A    between atoms: _94  and  _95
REMARK   41  A    between atoms: _94  and  _97
REMARK   42  A    between atoms: _100  and  _102
REMARK   43  A    between atoms: _102  and  _103
REMARK   44  A    between atoms: _102  and  _105
REMARK   45  A    between atoms: _105  and  _106
REMARK   46  A    between atoms: _109  and  _111
REMARK   47  A    between atoms: _111  and  _112
REMARK   48  A    between atoms: _111  and  _114
REMARK   49  A    between atoms: _114  and  _115
REMARK   50  A    between atoms: _115  and  _116
REMARK   51  A    between atoms: _116  and  _117
REMARK   52  A    between atoms: _117  and  _118
REMARK   53  A    between atoms: _122  and  _124
REMARK   54  A    between atoms: _124  and  _125
REMARK   55  A    between atoms: _124  and  _127
REMARK   56  A    between atoms: _127  and  _128
REMARK   57  A    between atoms: _128  and  _129
REMARK   58  A    between atoms: _131  and  _133
REMARK   59  A    between atoms: _133  and  _134
REMARK   60  A    between atoms: _133  and  _136
REMARK   61  A    between atoms: _136  and  _137
REMARK   62  A    between atoms: _140  and  _142
REMARK   63  A    between atoms: _142  and  _143
REMARK   64  A    between atoms: _145  and  _147
REMARK   65  A    between atoms: _147  and  _148
REMARK   66  A    between atoms: _150  and  _152
REMARK   67  A    between atoms: _152  and  _153
REMARK   68  A    between atoms: _152  and  _155
REMARK   69  A    between atoms: _155  and  _156
REMARK   70  A    between atoms: _159  and  _161
REMARK   71  A    between atoms: _161  and  _162
REMARK   72  A    between atoms: _164  and  _166
REMARK   73  A    between atoms: _166  and  _167
REMARK   74  A    between atoms: _169  and  _171
REMARK   75  A    between atoms: _171  and  _172
REMARK   76  A    between atoms: _171  and  _174
REMARK   77  A    between atoms: _174  and  _175
REMARK   78  A    between atoms: _181  and  _183
REMARK   79  A    between atoms: _183  and  _184
REMARK   80  A    between atoms: _183  and  _186
REMARK   81  A    between atoms: _186  and  _187
REMARK   82  A    between atoms: _190  and  _192
REMARK   83  A    between atoms: _192  and  _193
REMARK   84  A    between atoms: _192  and  _195
REMARK   85  A    between atoms: _195  and  _196
REMARK   86  A    between atoms: _200  and  _201
REMARK   87  A    between atoms: _206  and  _208
REMARK   88  A    between atoms: _208  and  _209
REMARK   89  A    between atoms: _208  and  _211
REMARK   90  A    between atoms: _211  and  _212
REMARK   91  A    between atoms: _216  and  _217
REMARK   92  A    between atoms: _222  and  _224
REMARK   93  A    between atoms: _224  and  _225
REMARK   94  A    between atoms: _224  and  _227
REMARK   95  A    between atoms: _227  and  _228
REMARK   96  A    between atoms: _234  and  _236
REMARK   97  A    between atoms: _236  and  _237
REMARK   98  A    between atoms: _236  and  _239
REMARK   99  A    between atoms: _239  and  _240
REMARK  100  A    between atoms: _245  and  _247
REMARK  101  A    between atoms: _247  and  _248
REMARK  102  A    between atoms: _247  and  _250
REMARK  103  A    between atoms: _250  and  _251
REMARK  104  A    between atoms: _254  and  _256
REMARK  105  A    between atoms: _256  and  _257
REMARK  106  A    between atoms: _256  and  _259
REMARK  107  A    between atoms: _259  and  _260
REMARK  108  A    between atoms: _263  and  _265
REMARK  109  A    between atoms: _265  and  _266
REMARK  110  A    between atoms: _268  and  _270
REMARK  111  A    between atoms: _270  and  _271
REMARK  112  A    between atoms: _270  and  _273
REMARK  113  A    between atoms: _273  and  _274
REMARK  114  A    between atoms: _274  and  _275
REMARK  115  A    between atoms: _275  and  _276
REMARK  116  A    between atoms: _285  and  _287
REMARK  117  A    between atoms: _287  and  _288
REMARK  118  A    between atoms: _287  and  _290
REMARK  119  A    between atoms: _290  and  _291
REMARK  120  A    between atoms: _296  and  _298
REMARK  121  A    between atoms: _298  and  _299
REMARK  122  A    between atoms: _298  and  _301
REMARK  123  A    between atoms: _301  and  _302
REMARK  124  A    between atoms: _302  and  _303
REMARK  125  A    between atoms: _303  and  _304
REMARK  126  A    between atoms: _313  and  _315
REMARK  127  A    between atoms: _315  and  _316
REMARK  128  A    between atoms: _315  and  _318
REMARK  129  A    between atoms: _318  and  _319
REMARK  130  A    between atoms: _322  and  _324
REMARK  131  A    between atoms: _324  and  _325
REMARK  132  A    between atoms: _324  and  _327
REMARK  133  A    between atoms: _327  and  _328
REMARK  134  A    between atoms: _331  and  _333
REMARK  135  A    between atoms: _333  and  _334
REMARK  136  A    between atoms: _333  and  _336
REMARK  137  A    between atoms: _336  and  _337
REMARK  138  A    between atoms: _340  and  _342
REMARK  139  A    between atoms: _342  and  _343
REMARK  140  A    between atoms: _342  and  _345
REMARK  141  A    between atoms: _345  and  _346
REMARK  142  A    between atoms: _349  and  _351
REMARK  143  A    between atoms: _351  and  _352
REMARK  144  A    between atoms: _354  and  _356
REMARK  145  A    between atoms: _356  and  _357
REMARK  146  A    between atoms: _360  and  _362
REMARK  147  A    between atoms: _362  and  _363
REMARK  148  A    between atoms: _362  and  _365
REMARK  149  A    between atoms: _365  and  _366
REMARK  150  A    between atoms: _369  and  _371
REMARK  151  A    between atoms: _371  and  _372
REMARK  152  A    between atoms: _371  and  _374
REMARK  153  A    between atoms: _374  and  _375
REMARK  154  A    between atoms: _378  and  _380
REMARK  155  A    between atoms: _380  and  _381
REMARK  156  A    between atoms: _380  and  _383
REMARK  157  A    between atoms: _383  and  _384
REMARK  158  A    between atoms: _387  and  _389
REMARK  159  A    between atoms: _389  and  _390
REMARK  160  A    between atoms: _389  and  _392
REMARK  161  A    between atoms: _395  and  _397
REMARK  162  A    between atoms: _397  and  _398
REMARK  163  A    between atoms: _397  and  _400
REMARK  164  A    between atoms: _400  and  _401
REMARK  165  A    between atoms: _404  and  _406
REMARK  166  A    between atoms: _406  and  _407
REMARK  167  A    between atoms: _406  and  _409
REMARK  168  A    between atoms: _409  and  _410
REMARK  169  A    between atoms: _410  and  _411
REMARK  170  A    between atoms: _411  and  _412
REMARK  171  A    between atoms: _412  and  _413
REMARK  172  A    between atoms: _417  and  _419
REMARK  173  A    between atoms: _419  and  _420
REMARK  174  A    between atoms: _419  and  _422
REMARK  175  A    between atoms: _422  and  _423
REMARK  176  A    between atoms: _423  and  _424
REMARK  177  A    between atoms: _426  and  _428
REMARK  178  A    between atoms: _428  and  _429
REMARK  179  A    between atoms: _428  and  _431
REMARK  180  A    between atoms: _431  and  _432
REMARK  181  A    between atoms: _435  and  _437
REMARK  182  A    between atoms: _437  and  _438
REMARK  183  A    between atoms: _440  and  _442
REMARK  184  A    between atoms: _442  and  _443
REMARK  185  A    between atoms: _445  and  _447
REMARK  186  A    between atoms: _447  and  _448
REMARK  187  A    between atoms: _447  and  _450
REMARK  188  A    between atoms: _450  and  _451
REMARK  189  A    between atoms: _454  and  _456
REMARK  190  A    between atoms: _456  and  _457
REMARK  191  A    between atoms: _459  and  _461
REMARK  192  A    between atoms: _461  and  _462
REMARK  193  A    between atoms: _464  and  _466
REMARK  194  A    between atoms: _466  and  _467
REMARK  195  A    between atoms: _466  and  _469
REMARK  196  A    between atoms: _469  and  _470
REMARK  197  A    between atoms: _476  and  _478
REMARK  198  A    between atoms: _478  and  _479
REMARK  199  A    between atoms: _478  and  _481
REMARK  200  A    between atoms: _481  and  _482
REMARK  201  A    between atoms: _485  and  _487
REMARK  202  A    between atoms: _487  and  _488
REMARK  203  A    between atoms: _487  and  _490
REMARK  204  A    between atoms: _490  and  _491
REMARK  205  A    between atoms: _495  and  _496
REMARK  206  A    between atoms: _501  and  _503
REMARK  207  A    between atoms: _503  and  _504
REMARK  208  A    between atoms: _503  and  _506
REMARK  209  A    between atoms: _506  and  _507
REMARK  210  A    between atoms: _511  and  _512
REMARK  211  A    between atoms: _517  and  _519
REMARK  212  A    between atoms: _519  and  _520
REMARK  213  A    between atoms: _519  and  _522
REMARK  214  A    between atoms: _522  and  _523
REMARK  215  A    between atoms: _529  and  _531
REMARK  216  A    between atoms: _531  and  _532
REMARK  217  A    between atoms: _531  and  _534
REMARK  218  A    between atoms: _534  and  _535
REMARK  219  A    between atoms: _540  and  _542
REMARK  220  A    between atoms: _542  and  _543
REMARK  221  A    between atoms: _542  and  _545
REMARK  222  A    between atoms: _545  and  _546
REMARK  223  A    between atoms: _549  and  _551
REMARK  224  A    between atoms: _551  and  _552
REMARK  225  A    between atoms: _551  and  _554
REMARK  226  A    between atoms: _554  and  _555
REMARK  227  A    between atoms: _558  and  _560
REMARK  228  A    between atoms: _560  and  _561
REMARK  229  A    between atoms: _563  and  _565
REMARK  230  A    between atoms: _565  and  _566
REMARK  231  A    between atoms: _565  and  _568
REMARK  232  A    between atoms: _568  and  _569
REMARK  233  A    between atoms: _569  and  _570
REMARK  234  A    between atoms: _570  and  _571
REMARK  235  A    between atoms: _580  and  _582
REMARK  236  A    between atoms: _582  and  _583
REMARK  237  A    between atoms: _582  and  _585
REMARK  238  A    between atoms: _585  and  _586
REMARK                            x       y       z     vdW  Elec       q    Type
REMARK                         _______ _______ _______ _____ _____    ______ ____
ROOT
ATOM      1  O   HOH     1     -12.171  17.766  14.361  0.00  0.00    +0.000 OA
ENDROOT
TORSDOF 0
REMARK  Name = ../refined-set-2016/1bv7/1bv7_pocket.pdb
REMARK  238 active torsions:
REMARK  status: ('A' for Active; 'I' for Inactive)
REMARK    1  A    between atoms: _1  and  _3
REMARK    2  A    between atoms: _3  and  _4
REMARK    3  A    between atoms: _3  and  _6
REMARK    4  A    between atoms: _6  and  _7
REMARK    5  A    between atoms: _7  and  _8
REMARK    6  A    between atoms: _8  and  _9
REMARK    7  A    between atoms: _18  and  _20
REMARK    8  A    between atoms: _20  and  _21
REMARK    9  A    between atoms: _20  and  _23
REMARK   10  A    between atoms: _23  and  _24
REMARK   11  A    between atoms: _27  and  _29
REMARK   12  A    between atoms: _29  and  _30
REMARK   13  A    between atoms: _29  and  _32
REMARK   14  A    between atoms: _32  and  _33
REMARK   15  A    between atoms: _36  and  _38
REMARK   16  A    between atoms: _38  and  _39
REMARK   17  A    between atoms: _38  and  _41
REMARK   18  A    between atoms: _41  and  _42
REMARK   19  A    between atoms: _45  and  _47
REMARK   20  A    between atoms: _47  and  _48
REMARK   21  A    between atoms: _47  and  _50
REMARK   22  A    between atoms: _50  and  _51
REMARK   23  A    between atoms: _54  and  _56
REMARK   24  A    between atoms: _56  and  _57
REMARK   25  A    between atoms: _59  and  _61
REMARK   26  A    between atoms: _61  and  _62
REMARK   27  A    between atoms: _65  and  _67
REMARK   28  A    between atoms: _67  and  _68
REMARK   29  A    between atoms: _67  and  _70
REMARK   30  A    between atoms: _70  and  _71
REMARK   31  A    between atoms: _74  and  _76
REMARK   32  A    between atoms: _76  and  _77
REMARK   33  A    between atoms: _76  and  _79
REMARK   34  A    between atoms: _79  and  _80
REMARK   35  A    between atoms: _83  and  _85
REMARK   36  A    between atoms: _85  and  _86
REMARK   37  A    between atoms: _85  and  _88
REMARK   38  A    between atoms: _88  and  _89
REMARK   39  A    between atoms: _92  and  _94
REMARK   40  A    between atoms: _94  and  _95
REMARK   41  A    between atoms: _94  and  _97
REMARK   42  A    between atoms: _100  and  _102
REMARK   43  A    between atoms: _102  and  _103
REMARK   44  A    between atoms: _102  and  _105
REMARK   45  A    between atoms: _105  and  _106
REMARK   46  A    between atoms: _109  and  _111
REMARK   47  A    between atoms: _111  and  _112
REMARK   48  A    between atoms: _111  and  _114
REMARK   49  A    between atoms: _114  and  _115
REMARK   50  A    between atoms: _115  and  _116
REMARK   51  A    between atoms: _116  and  _117
REMARK   52  A    between atoms: _117  and  _118
REMARK   53  A    between atoms: _122  and  _124
REMARK   54  A    between atoms: _124  and  _125
REMARK   55  A    between atoms: _124  and  _127
REMARK   56  A    between atoms: _127  and  _128
REMARK   57  A    between atoms: _128  and  _129
REMARK   58  A    between atoms: _131  and  _133
REMARK   59  A    between atoms: _133  and  _134
REMARK   60  A    between atoms: _133  and  _136
REMARK   61  A    between atoms: _136  and  _137
REMARK   62  A    between atoms: _140  and  _142
REMARK   63  A    between atoms: _142  and  _143
REMARK   64  A    between atoms: _145  and  _147
REMARK   65  A    between atoms: _147  and  _148
REMARK   66  A    between atoms: _150  and  _152
REMARK   67  A    between atoms: _152  and  _153
REMARK   68  A    between atoms: _152  and  _155
REMARK   69  A    between atoms: _155  and  _156
REMARK   70  A    between atoms: _159  and  _161
REMARK   71  A    between atoms: _161  and  _162
REMARK   72  A    between atoms: _164  and  _166
REMARK   73  A    between atoms: _166  and  _167
REMARK   74  A    between atoms: _169  and  _171
REMARK   75  A    between atoms: _171  and  _172
REMARK   76  A    between atoms: _171  and  _174
REMARK   77  A    between atoms: _174  and  _175
REMARK   78  A    between atoms: _181  and  _183
REMARK   79  A    between atoms: _183  and  _184
REMARK   80  A    between atoms: _183  and  _186
REMARK   81  A    between atoms: _186  and  _187
REMARK   82  A    between atoms: _190  and  _192
REMARK   83  A    between atoms: _192  and  _193
REMARK   84  A    between atoms: _192  and  _195
REMARK   85  A    between atoms: _195  and  _196
REMARK   86  A    between atoms: _200  and  _201
REMARK   87  A    between atoms: _206  and  _208
REMARK   88  A    between atoms: _208  and  _209
REMARK   89  A    between atoms: _208  and  _211
REMARK   90  A    between atoms: _211  and  _212
REMARK   91  A    between atoms: _216  and  _217
REMARK   92  A    between atoms: _222  and  _224
REMARK   93  A    between atoms: _224  and  _225
REMARK   94  A    between atoms: _224  and  _227
REMARK   95  A    between atoms: _227  and  _228
REMARK   96  A    between atoms: _234  and  _236
REMARK   97  A    between atoms: _236  and  _237
REMARK   98  A    between atoms: _236  and  _239
REMARK   99  A    between atoms: _239  and  _240
REMARK  100  A    between atoms: _245  and  _247
REMARK  101  A    between atoms: _247  and  _248
REMARK  102  A    between atoms: _247  and  _250
REMARK  103  A    between atoms: _250  and  _251
REMARK  104  A    between atoms: _254  and  _256
REMARK  105  A    between atoms: _256  and  _257
REMARK  106  A    between atoms: _256  and  _259
REMARK  107  A    between atoms: _259  and  _260
REMARK  108  A    between atoms: _263  and  _265
REMARK  109  A    between atoms: _265  and  _266
REMARK  110  A    between atoms: _268  and  _270
REMARK  111  A    between atoms: _270  and  _271
REMARK  112  A    between atoms: _270  and  _273
REMARK  113  A    between atoms: _273  and  _274
REMARK  114  A    between atoms: _274  and  _275
REMARK  115  A    between atoms: _275  and  _276
REMARK  116  A    between atoms: _285  and  _287
REMARK  117  A    between atoms: _287  and  _288
REMARK  118  A    between atoms: _287  and  _290
REMARK  119  A    between atoms: _290  and  _291
REMARK  120  A    between atoms: _296  and  _298
REMARK  121  A    between atoms: _298  and  _299
REMARK  122  A    between atoms: _298  and  _301
REMARK  123  A    between atoms: _301  and  _302
REMARK  124  A    between atoms: _302  and  _303
REMARK  125  A    between atoms: _303  and  _304
REMARK  126  A    between atoms: _313  and  _315
REMARK  127  A    between atoms: _315  and  _316
REMARK  128  A    between atoms: _315  and  _318
REMARK  129  A    between atoms: _318  and  _319
REMARK  130  A    between atoms: _322  and  _324
REMARK  131  A    between atoms: _324  and  _325
REMARK  132  A    between atoms: _324  and  _327
REMARK  133  A    between atoms: _327  and  _328
REMARK  134  A    between atoms: _331  and  _333
REMARK  135  A    between atoms: _333  and  _334
REMARK  136  A    between atoms: _333  and  _336
REMARK  137  A    between atoms: _336  and  _337
REMARK  138  A    between atoms: _340  and  _342
REMARK  139  A    between atoms: _342  and  _343
REMARK  140  A    between atoms: _342  and  _345
REMARK  141  A    between atoms: _345  and  _346
REMARK  142  A    between atoms: _349  and  _351
REMARK  143  A    between atoms: _351  and  _352
REMARK  144  A    between atoms: _354  and  _356
REMARK  145  A    between atoms: _356  and  _357
REMARK  146  A    between atoms: _360  and  _362
REMARK  147  A    between atoms: _362  and  _363
REMARK  148  A    between atoms: _362  and  _365
REMARK  149  A    between atoms: _365  and  _366
REMARK  150  A    between atoms: _369  and  _371
REMARK  151  A    between atoms: _371  and  _372
REMARK  152  A    between atoms: _371  and  _374
REMARK  153  A    between atoms: _374  and  _375
REMARK  154  A    between atoms: _378  and  _380
REMARK  155  A    between atoms: _380  and  _381
REMARK  156  A    between atoms: _380  and  _383
REMARK  157  A    between atoms: _383  and  _384
REMARK  158  A    between atoms: _387  and  _389
REMARK  159  A    between atoms: _389  and  _390
REMARK  160  A    between atoms: _389  and  _392
REMARK  161  A    between atoms: _395  and  _397
REMARK  162  A    between atoms: _397  and  _398
REMARK  163  A    between atoms: _397  and  _400
REMARK  164  A    between atoms: _400  and  _401
REMARK  165  A    between atoms: _404  and  _406
REMARK  166  A    between atoms: _406  and  _407
REMARK  167  A    between atoms: _406  and  _409
REMARK  168  A    between atoms: _409  and  _410
REMARK  169  A    between atoms: _410  and  _411
REMARK  170  A    between atoms: _411  and  _412
REMARK  171  A    between atoms: _412  and  _413
REMARK  172  A    between atoms: _417  and  _419
REMARK  173  A    between atoms: _419  and  _420
REMARK  174  A    between atoms: _419  and  _422
REMARK  175  A    between atoms: _422  and  _423
REMARK  176  A    between atoms: _423  and  _424
REMARK  177  A    between atoms: _426  and  _428
REMARK  178  A    between atoms: _428  and  _429
REMARK  179  A    between atoms: _428  and  _431
REMARK  180  A    between atoms: _431  and  _432
REMARK  181  A    between atoms: _435  and  _437
REMARK  182  A    between atoms: _437  and  _438
REMARK  183  A    between atoms: _440  and  _442
REMARK  184  A    between atoms: _442  and  _443
REMARK  185  A    between atoms: _445  and  _447
REMARK  186  A    between atoms: _447  and  _448
REMARK  187  A    between atoms: _447  and  _450
REMARK  188  A    between atoms: _450  and  _451
REMARK  189  A    between atoms: _454  and  _456
REMARK  190  A    between atoms: _456  and  _457
REMARK  191  A    between atoms: _459  and  _461
REMARK  192  A    between atoms: _461  and  _462
REMARK  193  A    between atoms: _464  and  _466
REMARK  194  A    between atoms: _466  and  _467
REMARK  195  A    between atoms: _466  and  _469
REMARK  196  A    between atoms: _469  and  _470
REMARK  197  A    between atoms: _476  and  _478
REMARK  198  A    between atoms: _478  and  _479
REMARK  199  A    between atoms: _478  and  _481
REMARK  200  A    between atoms: _481  and  _482
REMARK  201  A    between atoms: _485  and  _487
REMARK  202  A    between atoms: _487  and  _488
REMARK  203  A    between atoms: _487  and  _490
REMARK  204  A    between atoms: _490  and  _491
REMARK  205  A    between atoms: _495  and  _496
REMARK  206  A    between atoms: _501  and  _503
REMARK  207  A    between atoms: _503  and  _504
REMARK  208  A    between atoms: _503  and  _506
REMARK  209  A    between atoms: _506  and  _507
REMARK  210  A    between atoms: _511  and  _512
REMARK  211  A    between atoms: _517  and  _519
REMARK  212  A    between atoms: _519  and  _520
REMARK  213  A    between atoms: _519  and  _522
REMARK  214  A    between atoms: _522  and  _523
REMARK  215  A    between atoms: _529  and  _531
REMARK  216  A    between atoms: _531  and  _532
REMARK  217  A    between atoms: _531  and  _534
REMARK  218  A    between atoms: _534  and  _535
REMARK  219  A    between atoms: _540  and  _542
REMARK  220  A    between atoms: _542  and  _543
REMARK  221  A    between atoms: _542  and  _545
REMARK  222  A    between atoms: _545  and  _546
REMARK  223  A    between atoms: _549  and  _551
REMARK  224  A    between atoms: _551  and  _552
REMARK  225  A    between atoms: _551  and  _554
REMARK  226  A    between atoms: _554  and  _555
REMARK  227  A    between atoms: _558  and  _560
REMARK  228  A    between atoms: _560  and  _561
REMARK  229  A    between atoms: _563  and  _565
REMARK  230  A    between atoms: _565  and  _566
REMARK  231  A    between atoms: _565  and  _568
REMARK  232  A    between atoms: _568  and  _569
REMARK  233  A    between atoms: _569  and  _570
REMARK  234  A    between atoms: _570  and  _571
REMARK  235  A    between atoms: _580  and  _582
REMARK  236  A    between atoms: _582  and  _583
REMARK  237  A    between atoms: _582  and  _585
REMARK  238  A    between atoms: _585  and  _586
REMARK                            x       y       z     vdW  Elec       q    Type
REMARK                         _______ _______ _______ _____ _____    ______ ____
ROOT
ATOM      1  O   HOH     1      -7.845  24.335  23.306  0.00  0.00    +0.000 OA
ENDROOT
TORSDOF 0
REMARK  Name = ../refined-set-2016/1bv7/1bv7_pocket.pdb
REMARK  238 active torsions:
REMARK  status: ('A' for Active; 'I' for Inactive)
REMARK    1  A    between atoms: _1  and  _3
REMARK    2  A    between atoms: _3  and  _4
REMARK    3  A    between atoms: _3  and  _6
REMARK    4  A    between atoms: _6  and  _7
REMARK    5  A    between atoms: _7  and  _8
REMARK    6  A    between atoms: _8  and  _9
REMARK    7  A    between atoms: _18  and  _20
REMARK    8  A    between atoms: _20  and  _21
REMARK    9  A    between atoms: _20  and  _23
REMARK   10  A    between atoms: _23  and  _24
REMARK   11  A    between atoms: _27  and  _29
REMARK   12  A    between atoms: _29  and  _30
REMARK   13  A    between atoms: _29  and  _32
REMARK   14  A    between atoms: _32  and  _33
REMARK   15  A    between atoms: _36  and  _38
REMARK   16  A    between atoms: _38  and  _39
REMARK   17  A    between atoms: _38  and  _41
REMARK   18  A    between atoms: _41  and  _42
REMARK   19  A    between atoms: _45  and  _47
REMARK   20  A    between atoms: _47  and  _48
REMARK   21  A    between atoms: _47  and  _50
REMARK   22  A    between atoms: _50  and  _51
REMARK   23  A    between atoms: _54  and  _56
REMARK   24  A    between atoms: _56  and  _57
REMARK   25  A    between atoms: _59  and  _61
REMARK   26  A    between atoms: _61  and  _62
REMARK   27  A    between atoms: _65  and  _67
REMARK   28  A    between atoms: _67  and  _68
REMARK   29  A    between atoms: _67  and  _70
REMARK   30  A    between atoms: _70  and  _71
REMARK   31  A    between atoms: _74  and  _76
REMARK   32  A    between atoms: _76  and  _77
REMARK   33  A    between atoms: _76  and  _79
REMARK   34  A    between atoms: _79  and  _80
REMARK   35  A    between atoms: _83  and  _85
REMARK   36  A    between atoms: _85  and  _86
REMARK   37  A    between atoms: _85  and  _88
REMARK   38  A    between atoms: _88  and  _89
REMARK   39  A    between atoms: _92  and  _94
REMARK   40  A    between atoms: _94  and  _95
REMARK   41  A    between atoms: _94  and  _97
REMARK   42  A    between atoms: _100  and  _102
REMARK   43  A    between atoms: _102  and  _103
REMARK   44  A    between atoms: _102  and  _105
REMARK   45  A    between atoms: _105  and  _106
REMARK   46  A    between atoms: _109  and  _111
REMARK   47  A    between atoms: _111  and  _112
REMARK   48  A    between atoms: _111  and  _114
REMARK   49  A    between atoms: _114  and  _115
REMARK   50  A    between atoms: _115  and  _116
REMARK   51  A    between atoms: _116  and  _117
REMARK   52  A    between atoms: _117  and  _118
REMARK   53  A    between atoms: _122  and  _124
REMARK   54  A    between atoms: _124  and  _125
REMARK   55  A    between atoms: _124  and  _127
REMARK   56  A    between atoms: _127  and  _128
REMARK   57  A    between atoms: _128  and  _129
REMARK   58  A    between atoms: _131  and  _133
REMARK   59  A    between atoms: _133  and  _134
REMARK   60  A    between atoms: _133  and  _136
REMARK   61  A    between atoms: _136  and  _137
REMARK   62  A    between atoms: _140  and  _142
REMARK   63  A    between atoms: _142  and  _143
REMARK   64  A    between atoms: _145  and  _147
REMARK   65  A    between atoms: _147  and  _148
REMARK   66  A    between atoms: _150  and  _152
REMARK   67  A    between atoms: _152  and  _153
REMARK   68  A    between atoms: _152  and  _155
REMARK   69  A    between atoms: _155  and  _156
REMARK   70  A    between atoms: _159  and  _161
REMARK   71  A    between atoms: _161  and  _162
REMARK   72  A    between atoms: _164  and  _166
REMARK   73  A    between atoms: _166  and  _167
REMARK   74  A    between atoms: _169  and  _171
REMARK   75  A    between atoms: _171  and  _172
REMARK   76  A    between atoms: _171  and  _174
REMARK   77  A    between atoms: _174  and  _175
REMARK   78  A    between atoms: _181  and  _183
REMARK   79  A    between atoms: _183  and  _184
REMARK   80  A    between atoms: _183  and  _186
REMARK   81  A    between atoms: _186  and  _187
REMARK   82  A    between atoms: _190  and  _192
REMARK   83  A    between atoms: _192  and  _193
REMARK   84  A    between atoms: _192  and  _195
REMARK   85  A    between atoms: _195  and  _196
REMARK   86  A    between atoms: _200  and  _201
REMARK   87  A    between atoms: _206  and  _208
REMARK   88  A    between atoms: _208  and  _209
REMARK   89  A    between atoms: _208  and  _211
REMARK   90  A    between atoms: _211  and  _212
REMARK   91  A    between atoms: _216  and  _217
REMARK   92  A    between atoms: _222  and  _224
REMARK   93  A    between atoms: _224  and  _225
REMARK   94  A    between atoms: _224  and  _227
REMARK   95  A    between atoms: _227  and  _228
REMARK   96  A    between atoms: _234  and  _236
REMARK   97  A    between atoms: _236  and  _237
REMARK   98  A    between atoms: _236  and  _239
REMARK   99  A    between atoms: _239  and  _240
REMARK  100  A    between atoms: _245  and  _247
REMARK  101  A    between atoms: _247  and  _248
REMARK  102  A    between atoms: _247  and  _250
REMARK  103  A    between atoms: _250  and  _251
REMARK  104  A    between atoms: _254  and  _256
REMARK  105  A    between atoms: _256  and  _257
REMARK  106  A    between atoms: _256  and  _259
REMARK  107  A    between atoms: _259  and  _260
REMARK  108  A    between atoms: _263  and  _265
REMARK  109  A    between atoms: _265  and  _266
REMARK  110  A    between atoms: _268  and  _270
REMARK  111  A    between atoms: _270  and  _271
REMARK  112  A    between atoms: _270  and  _273
REMARK  113  A    between atoms: _273  and  _274
REMARK  114  A    between atoms: _274  and  _275
REMARK  115  A    between atoms: _275  and  _276
REMARK  116  A    between atoms: _285  and  _287
REMARK  117  A    between atoms: _287  and  _288
REMARK  118  A    between atoms: _287  and  _290
REMARK  119  A    between atoms: _290  and  _291
REMARK  120  A    between atoms: _296  and  _298
REMARK  121  A    between atoms: _298  and  _299
REMARK  122  A    between atoms: _298  and  _301
REMARK  123  A    between atoms: _301  and  _302
REMARK  124  A    between atoms: _302  and  _303
REMARK  125  A    between atoms: _303  and  _304
REMARK  126  A    between atoms: _313  and  _315
REMARK  127  A    between atoms: _315  and  _316
REMARK  128  A    between atoms: _315  and  _318
REMARK  129  A    between atoms: _318  and  _319
REMARK  130  A    between atoms: _322  and  _324
REMARK  131  A    between atoms: _324  and  _325
REMARK  132  A    between atoms: _324  and  _327
REMARK  133  A    between atoms: _327  and  _328
REMARK  134  A    between atoms: _331  and  _333
REMARK  135  A    between atoms: _333  and  _334
REMARK  136  A    between atoms: _333  and  _336
REMARK  137  A    between atoms: _336  and  _337
REMARK  138  A    between atoms: _340  and  _342
REMARK  139  A    between atoms: _342  and  _343
REMARK  140  A    between atoms: _342  and  _345
REMARK  141  A    between atoms: _345  and  _346
REMARK  142  A    between atoms: _349  and  _351
REMARK  143  A    between atoms: _351  and  _352
REMARK  144  A    between atoms: _354  and  _356
REMARK  145  A    between atoms: _356  and  _357
REMARK  146  A    between atoms: _360  and  _362
REMARK  147  A    between atoms: _362  and  _363
REMARK  148  A    between atoms: _362  and  _365
REMARK  149  A    between atoms: _365  and  _366
REMARK  150  A    between atoms: _369  and  _371
REMARK  151  A    between atoms: _371  and  _372
REMARK  152  A    between atoms: _371  and  _374
REMARK  153  A    between atoms: _374  and  _375
REMARK  154  A    between atoms: _378  and  _380
REMARK  155  A    between atoms: _380  and  _381
REMARK  156  A    between atoms: _380  and  _383
REMARK  157  A    between atoms: _383  and  _384
REMARK  158  A    between atoms: _387  and  _389
REMARK  159  A    between atoms: _389  and  _390
REMARK  160  A    between atoms: _389  and  _392
REMARK  161  A    between atoms: _395  and  _397
REMARK  162  A    between atoms: _397  and  _398
REMARK  163  A    between atoms: _397  and  _400
REMARK  164  A    between atoms: _400  and  _401
REMARK  165  A    between atoms: _404  and  _406
REMARK  166  A    between atoms: _406  and  _407
REMARK  167  A    between atoms: _406  and  _409
REMARK  168  A    between atoms: _409  and  _410
REMARK  169  A    between atoms: _410  and  _411
REMARK  170  A    between atoms: _411  and  _412
REMARK  171  A    between atoms: _412  and  _413
REMARK  172  A    between atoms: _417  and  _419
REMARK  173  A    between atoms: _419  and  _420
REMARK  174  A    between atoms: _419  and  _422
REMARK  175  A    between atoms: _422  and  _423
REMARK  176  A    between atoms: _423  and  _424
REMARK  177  A    between atoms: _426  and  _428
REMARK  178  A    between atoms: _428  and  _429
REMARK  179  A    between atoms: _428  and  _431
REMARK  180  A    between atoms: _431  and  _432
REMARK  181  A    between atoms: _435  and  _437
REMARK  182  A    between atoms: _437  and  _438
REMARK  183  A    between atoms: _440  and  _442
REMARK  184  A    between atoms: _442  and  _443
REMARK  185  A    between atoms: _445  and  _447
REMARK  186  A    between atoms: _447  and  _448
REMARK  187  A    between atoms: _447  and  _450
REMARK  188  A    between atoms: _450  and  _451
REMARK  189  A    between atoms: _454  and  _456
REMARK  190  A    between atoms: _456  and  _457
REMARK  191  A    between atoms: _459  and  _461
REMARK  192  A    between atoms: _461  and  _462
REMARK  193  A    between atoms: _464  and  _466
REMARK  194  A    between atoms: _466  and  _467
REMARK  195  A    between atoms: _466  and  _469
REMARK  196  A    between atoms: _469  and  _470
REMARK  197  A    between atoms: _476  and  _478
REMARK  198  A    between atoms: _478  and  _479
REMARK  199  A    between atoms: _478  and  _481
REMARK  200  A    between atoms: _481  and  _482
REMARK  201  A    between atoms: _485  and  _487
REMARK  202  A    between atoms: _487  and  _488
REMARK  203  A    between atoms: _487  and  _490
REMARK  204  A    between atoms: _490  and  _491
REMARK  205  A    between atoms: _495  and  _496
REMARK  206  A    between atoms: _501  and  _503
REMARK  207  A    between atoms: _503  and  _504
REMARK  208  A    between atoms: _503  and  _506
REMARK  209  A    between atoms: _506  and  _507
REMARK  210  A    between atoms: _511  and  _512
REMARK  211  A    between atoms: _517  and  _519
REMARK  212  A    between atoms: _519  and  _520
REMARK  213  A    between atoms: _519  and  _522
REMARK  214  A    between atoms: _522  and  _523
REMARK  215  A    between atoms: _529  and  _531
REMARK  216  A    between atoms: _531  and  _532
REMARK  217  A    between atoms: _531  and  _534
REMARK  218  A    between atoms: _534  and  _535
REMARK  219  A    between atoms: _540  and  _542
REMARK  220  A    between atoms: _542  and  _543
REMARK  221  A    between atoms: _542  and  _545
REMARK  222  A    between atoms: _545  and  _546
REMARK  223  A    between atoms: _549  and  _551
REMARK  224  A    between atoms: _551  and  _552
REMARK  225  A    between atoms: _551  and  _554
REMARK  226  A    between atoms: _554  and  _555
REMARK  227  A    between atoms: _558  and  _560
REMARK  228  A    between atoms: _560  and  _561
REMARK  229  A    between atoms: _563  and  _565
REMARK  230  A    between atoms: _565  and  _566
REMARK  231  A    between atoms: _565  and  _568
REMARK  232  A    between atoms: _568  and  _569
REMARK  233  A    between atoms: _569  and  _570
REMARK  234  A    between atoms: _570  and  _571
REMARK  235  A    between atoms: _580  and  _582
REMARK  236  A    between atoms: _582  and  _583
REMARK  237  A    between atoms: _582  and  _585
REMARK  238  A    between atoms: _585  and  _586
REMARK                            x       y       z     vdW  Elec       q    Type
REMARK                         _______ _______ _______ _____ _____    ______ ____
ROOT
ATOM      1  O   HOH     1      -8.854  17.366  12.446  0.00  0.00    +0.000 OA
ENDROOT
TORSDOF 0
REMARK  Name = ../refined-set-2016/1bv7/1bv7_pocket.pdb
REMARK  238 active torsions:
REMARK  status: ('A' for Active; 'I' for Inactive)
REMARK    1  A    between atoms: _1  and  _3
REMARK    2  A    between atoms: _3  and  _4
REMARK    3  A    between atoms: _3  and  _6
REMARK    4  A    between atoms: _6  and  _7
REMARK    5  A    between atoms: _7  and  _8
REMARK    6  A    between atoms: _8  and  _9
REMARK    7  A    between atoms: _18  and  _20
REMARK    8  A    between atoms: _20  and  _21
REMARK    9  A    between atoms: _20  and  _23
REMARK   10  A    between atoms: _23  and  _24
REMARK   11  A    between atoms: _27  and  _29
REMARK   12  A    between atoms: _29  and  _30
REMARK   13  A    between atoms: _29  and  _32
REMARK   14  A    between atoms: _32  and  _33
REMARK   15  A    between atoms: _36  and  _38
REMARK   16  A    between atoms: _38  and  _39
REMARK   17  A    between atoms: _38  and  _41
REMARK   18  A    between atoms: _41  and  _42
REMARK   19  A    between atoms: _45  and  _47
REMARK   20  A    between atoms: _47  and  _48
REMARK   21  A    between atoms: _47  and  _50
REMARK   22  A    between atoms: _50  and  _51
REMARK   23  A    between atoms: _54  and  _56
REMARK   24  A    between atoms: _56  and  _57
REMARK   25  A    between atoms: _59  and  _61
REMARK   26  A    between atoms: _61  and  _62
REMARK   27  A    between atoms: _65  and  _67
REMARK   28  A    between atoms: _67  and  _68
REMARK   29  A    between atoms: _67  and  _70
REMARK   30  A    between atoms: _70  and  _71
REMARK   31  A    between atoms: _74  and  _76
REMARK   32  A    between atoms: _76  and  _77
REMARK   33  A    between atoms: _76  and  _79
REMARK   34  A    between atoms: _79  and  _80
REMARK   35  A    between atoms: _83  and  _85
REMARK   36  A    between atoms: _85  and  _86
REMARK   37  A    between atoms: _85  and  _88
REMARK   38  A    between atoms: _88  and  _89
REMARK   39  A    between atoms: _92  and  _94
REMARK   40  A    between atoms: _94  and  _95
REMARK   41  A    between atoms: _94  and  _97
REMARK   42  A    between atoms: _100  and  _102
REMARK   43  A    between atoms: _102  and  _103
REMARK   44  A    between atoms: _102  and  _105
REMARK   45  A    between atoms: _105  and  _106
REMARK   46  A    between atoms: _109  and  _111
REMARK   47  A    between atoms: _111  and  _112
REMARK   48  A    between atoms: _111  and  _114
REMARK   49  A    between atoms: _114  and  _115
REMARK   50  A    between atoms: _115  and  _116
REMARK   51  A    between atoms: _116  and  _117
REMARK   52  A    between atoms: _117  and  _118
REMARK   53  A    between atoms: _122  and  _124
REMARK   54  A    between atoms: _124  and  _125
REMARK   55  A    between atoms: _124  and  _127
REMARK   56  A    between atoms: _127  and  _128
REMARK   57  A    between atoms: _128  and  _129
REMARK   58  A    between atoms: _131  and  _133
REMARK   59  A    between atoms: _133  and  _134
REMARK   60  A    between atoms: _133  and  _136
REMARK   61  A    between atoms: _136  and  _137
REMARK   62  A    between atoms: _140  and  _142
REMARK   63  A    between atoms: _142  and  _143
REMARK   64  A    between atoms: _145  and  _147
REMARK   65  A    between atoms: _147  and  _148
REMARK   66  A    between atoms: _150  and  _152
REMARK   67  A    between atoms: _152  and  _153
REMARK   68  A    between atoms: _152  and  _155
REMARK   69  A    between atoms: _155  and  _156
REMARK   70  A    between atoms: _159  and  _161
REMARK   71  A    between atoms: _161  and  _162
REMARK   72  A    between atoms: _164  and  _166
REMARK   73  A    between atoms: _166  and  _167
REMARK   74  A    between atoms: _169  and  _171
REMARK   75  A    between atoms: _171  and  _172
REMARK   76  A    between atoms: _171  and  _174
REMARK   77  A    between atoms: _174  and  _175
REMARK   78  A    between atoms: _181  and  _183
REMARK   79  A    between atoms: _183  and  _184
REMARK   80  A    between atoms: _183  and  _186
REMARK   81  A    between atoms: _186  and  _187
REMARK   82  A    between atoms: _190  and  _192
REMARK   83  A    between atoms: _192  and  _193
REMARK   84  A    between atoms: _192  and  _195
REMARK   85  A    between atoms: _195  and  _196
REMARK   86  A    between atoms: _200  and  _201
REMARK   87  A    between atoms: _206  and  _208
REMARK   88  A    between atoms: _208  and  _209
REMARK   89  A    between atoms: _208  and  _211
REMARK   90  A    between atoms: _211  and  _212
REMARK   91  A    between atoms: _216  and  _217
REMARK   92  A    between atoms: _222  and  _224
REMARK   93  A    between atoms: _224  and  _225
REMARK   94  A    between atoms: _224  and  _227
REMARK   95  A    between atoms: _227  and  _228
REMARK   96  A    between atoms: _234  and  _236
REMARK   97  A    between atoms: _236  and  _237
REMARK   98  A    between atoms: _236  and  _239
REMARK   99  A    between atoms: _239  and  _240
REMARK  100  A    between atoms: _245  and  _247
REMARK  101  A    between atoms: _247  and  _248
REMARK  102  A    between atoms: _247  and  _250
REMARK  103  A    between atoms: _250  and  _251
REMARK  104  A    between atoms: _254  and  _256
REMARK  105  A    between atoms: _256  and  _257
REMARK  106  A    between atoms: _256  and  _259
REMARK  107  A    between atoms: _259  and  _260
REMARK  108  A    between atoms: _263  and  _265
REMARK  109  A    between atoms: _265  and  _266
REMARK  110  A    between atoms: _268  and  _270
REMARK  111  A    between atoms: _270  and  _271
REMARK  112  A    between atoms: _270  and  _273
REMARK  113  A    between atoms: _273  and  _274
REMARK  114  A    between atoms: _274  and  _275
REMARK  115  A    between atoms: _275  and  _276
REMARK  116  A    between atoms: _285  and  _287
REMARK  117  A    between atoms: _287  and  _288
REMARK  118  A    between atoms: _287  and  _290
REMARK  119  A    between atoms: _290  and  _291
REMARK  120  A    between atoms: _296  and  _298
REMARK  121  A    between atoms: _298  and  _299
REMARK  122  A    between atoms: _298  and  _301
REMARK  123  A    between atoms: _301  and  _302
REMARK  124  A    between atoms: _302  and  _303
REMARK  125  A    between atoms: _303  and  _304
REMARK  126  A    between atoms: _313  and  _315
REMARK  127  A    between atoms: _315  and  _316
REMARK  128  A    between atoms: _315  and  _318
REMARK  129  A    between atoms: _318  and  _319
REMARK  130  A    between atoms: _322  and  _324
REMARK  131  A    between atoms: _324  and  _325
REMARK  132  A    between atoms: _324  and  _327
REMARK  133  A    between atoms: _327  and  _328
REMARK  134  A    between atoms: _331  and  _333
REMARK  135  A    between atoms: _333  and  _334
REMARK  136  A    between atoms: _333  and  _336
REMARK  137  A    between atoms: _336  and  _337
REMARK  138  A    between atoms: _340  and  _342
REMARK  139  A    between atoms: _342  and  _343
REMARK  140  A    between atoms: _342  and  _345
REMARK  141  A    between atoms: _345  and  _346
REMARK  142  A    between atoms: _349  and  _351
REMARK  143  A    between atoms: _351  and  _352
REMARK  144  A    between atoms: _354  and  _356
REMARK  145  A    between atoms: _356  and  _357
REMARK  146  A    between atoms: _360  and  _362
REMARK  147  A    between atoms: _362  and  _363
REMARK  148  A    between atoms: _362  and  _365
REMARK  149  A    between atoms: _365  and  _366
REMARK  150  A    between atoms: _369  and  _371
REMARK  151  A    between atoms: _371  and  _372
REMARK  152  A    between atoms: _371  and  _374
REMARK  153  A    between atoms: _374  and  _375
REMARK  154  A    between atoms: _378  and  _380
REMARK  155  A    between atoms: _380  and  _381
REMARK  156  A    between atoms: _380  and  _383
REMARK  157  A    between atoms: _383  and  _384
REMARK  158  A    between atoms: _387  and  _389
REMARK  159  A    between atoms: _389  and  _390
REMARK  160  A    between atoms: _389  and  _392
REMARK  161  A    between atoms: _395  and  _397
REMARK  162  A    between atoms: _397  and  _398
REMARK  163  A    between atoms: _397  and  _400
REMARK  164  A    between atoms: _400  and  _401
REMARK  165  A    between atoms: _404  and  _406
REMARK  166  A    between atoms: _406  and  _407
REMARK  167  A    between atoms: _406  and  _409
REMARK  168  A    between atoms: _409  and  _410
REMARK  169  A    between atoms: _410  and  _411
REMARK  170  A    between atoms: _411  and  _412
REMARK  171  A    between atoms: _412  and  _413
REMARK  172  A    between atoms: _417  and  _419
REMARK  173  A    between atoms: _419  and  _420
REMARK  174  A    between atoms: _419  and  _422
REMARK  175  A    between atoms: _422  and  _423
REMARK  176  A    between atoms: _423  and  _424
REMARK  177  A    between atoms: _426  and  _428
REMARK  178  A    between atoms: _428  and  _429
REMARK  179  A    between atoms: _428  and  _431
REMARK  180  A    between atoms: _431  and  _432
REMARK  181  A    between atoms: _435  and  _437
REMARK  182  A    between atoms: _437  and  _438
REMARK  183  A    between atoms: _440  and  _442
REMARK  184  A    between atoms: _442  and  _443
REMARK  185  A    between atoms: _445  and  _447
REMARK  186  A    between atoms: _447  and  _448
REMARK  187  A    between atoms: _447  and  _450
REMARK  188  A    between atoms: _450  and  _451
REMARK  189  A    between atoms: _454  and  _456
REMARK  190  A    between atoms: _456  and  _457
REMARK  191  A    between atoms: _459  and  _461
REMARK  192  A    between atoms: _461  and  _462
REMARK  193  A    between atoms: _464  and  _466
REMARK  194  A    between atoms: _466  and  _467
REMARK  195  A    between atoms: _466  and  _469
REMARK  196  A    between atoms: _469  and  _470
REMARK  197  A    between atoms: _476  and  _478
REMARK  198  A    between atoms: _478  and  _479
REMARK  199  A    between atoms: _478  and  _481
REMARK  200  A    between atoms: _481  and  _482
REMARK  201  A    between atoms: _485  and  _487
REMARK  202  A    between atoms: _487  and  _488
REMARK  203  A    between atoms: _487  and  _490
REMARK  204  A    between atoms: _490  and  _491
REMARK  205  A    between atoms: _495  and  _496
REMARK  206  A    between atoms: _501  and  _503
REMARK  207  A    between atoms: _503  and  _504
REMARK  208  A    between atoms: _503  and  _506
REMARK  209  A    between atoms: _506  and  _507
REMARK  210  A    between atoms: _511  and  _512
REMARK  211  A    between atoms: _517  and  _519
REMARK  212  A    between atoms: _519  and  _520
REMARK  213  A    between atoms: _519  and  _522
REMARK  214  A    between atoms: _522  and  _523
REMARK  215  A    between atoms: _529  and  _531
REMARK  216  A    between atoms: _531  and  _532
REMARK  217  A    between atoms: _531  and  _534
REMARK  218  A    between atoms: _534  and  _535
REMARK  219  A    between atoms: _540  and  _542
REMARK  220  A    between atoms: _542  and  _543
REMARK  221  A    between atoms: _542  and  _545
REMARK  222  A    between atoms: _545  and  _546
REMARK  223  A    between atoms: _549  and  _551
REMARK  224  A    between atoms: _551  and  _552
REMARK  225  A    between atoms: _551  and  _554
REMARK  226  A    between atoms: _554  and  _555
REMARK  227  A    between atoms: _558  and  _560
REMARK  228  A    between atoms: _560  and  _561
REMARK  229  A    between atoms: _563  and  _565
REMARK  230  A    between atoms: _565  and  _566
REMARK  231  A    between atoms: _565  and  _568
REMARK  232  A    between atoms: _568  and  _569
REMARK  233  A    between atoms: _569  and  _570
REMARK  234  A    between atoms: _570  and  _571
REMARK  235  A    between atoms: _580  and  _582
REMARK  236  A    between atoms: _582  and  _583
REMARK  237  A    between atoms: _582  and  _585
REMARK  238  A    between atoms: _585  and  _586
REMARK                            x       y       z     vdW  Elec       q    Type
REMARK                         _______ _______ _______ _____ _____    ______ ____
ROOT
ATOM      1  O   HOH     1     -19.607  13.503  37.650  0.00  0.00    +0.000 OA
ENDROOT
TORSDOF 0
