REMARK  Name = ../refined-set-2016/4q1x/4q1x_pocket.pdb
REMARK  219 active torsions:
REMARK  status: ('A' for Active; 'I' for Inactive)
REMARK    1  A    between atoms: _1  and  _3
REMARK    2  A    between atoms: _3  and  _4
REMARK    3  A    between atoms: _3  and  _6
REMARK    4  A    between atoms: _6  and  _7
REMARK    5  A    between atoms: _7  and  _8
REMARK    6  A    between atoms: _8  and  _9
REMARK    7  A    between atoms: _18  and  _20
REMARK    8  A    between atoms: _20  and  _21
REMARK    9  A    between atoms: _20  and  _23
REMARK   10  A    between atoms: _23  and  _24
REMARK   11  A    between atoms: _27  and  _29
REMARK   12  A    between atoms: _29  and  _30
REMARK   13  A    between atoms: _29  and  _32
REMARK   14  A    between atoms: _32  and  _33
REMARK   15  A    between atoms: _36  and  _38
REMARK   16  A    between atoms: _38  and  _39
REMARK   17  A    between atoms: _38  and  _41
REMARK   18  A    between atoms: _41  and  _42
REMARK   19  A    between atoms: _45  and  _47
REMARK   20  A    between atoms: _47  and  _48
REMARK   21  A    between atoms: _47  and  _50
REMARK   22  A    between atoms: _50  and  _51
REMARK   23  A    between atoms: _54  and  _56
REMARK   24  A    between atoms: _56  and  _57
REMARK   25  A    between atoms: _59  and  _61
REMARK   26  A    between atoms: _61  and  _62
REMARK   27  A    between atoms: _65  and  _67
REMARK   28  A    between atoms: _67  and  _68
REMARK   29  A    between atoms: _67  and  _70
REMARK   30  A    between atoms: _70  and  _71
REMARK   31  A    between atoms: _74  and  _76
REMARK   32  A    between atoms: _76  and  _77
REMARK   33  A    between atoms: _76  and  _79
REMARK   34  A    between atoms: _79  and  _80
REMARK   35  A    between atoms: _83  and  _85
REMARK   36  A    between atoms: _85  and  _86
REMARK   37  A    between atoms: _85  and  _88
REMARK   38  A    between atoms: _88  and  _89
REMARK   39  A    between atoms: _92  and  _94
REMARK   40  A    between atoms: _94  and  _95
REMARK   41  A    between atoms: _94  and  _97
REMARK   42  A    between atoms: _97  and  _98
REMARK   43  A    between atoms: _101  and  _103
REMARK   44  A    between atoms: _103  and  _104
REMARK   45  A    between atoms: _103  and  _106
REMARK   46  A    between atoms: _106  and  _107
REMARK   47  A    between atoms: _110  and  _112
REMARK   48  A    between atoms: _112  and  _113
REMARK   49  A    between atoms: _115  and  _117
REMARK   50  A    between atoms: _117  and  _118
REMARK   51  A    between atoms: _120  and  _122
REMARK   52  A    between atoms: _122  and  _123
REMARK   53  A    between atoms: _122  and  _125
REMARK   54  A    between atoms: _125  and  _126
REMARK   55  A    between atoms: _129  and  _131
REMARK   56  A    between atoms: _131  and  _132
REMARK   57  A    between atoms: _134  and  _136
REMARK   58  A    between atoms: _136  and  _137
REMARK   59  A    between atoms: _139  and  _141
REMARK   60  A    between atoms: _141  and  _142
REMARK   61  A    between atoms: _141  and  _144
REMARK   62  A    between atoms: _144  and  _145
REMARK   63  A    between atoms: _148  and  _150
REMARK   64  A    between atoms: _150  and  _151
REMARK   65  A    between atoms: _150  and  _153
REMARK   66  A    between atoms: _153  and  _154
REMARK   67  A    between atoms: _157  and  _159
REMARK   68  A    between atoms: _159  and  _160
REMARK   69  A    between atoms: _159  and  _162
REMARK   70  A    between atoms: _162  and  _163
REMARK   71  A    between atoms: _167  and  _168
REMARK   72  A    between atoms: _173  and  _175
REMARK   73  A    between atoms: _175  and  _176
REMARK   74  A    between atoms: _175  and  _178
REMARK   75  A    between atoms: _181  and  _183
REMARK   76  A    between atoms: _183  and  _184
REMARK   77  A    between atoms: _183  and  _186
REMARK   78  A    between atoms: _186  and  _187
REMARK   79  A    between atoms: _192  and  _194
REMARK   80  A    between atoms: _194  and  _195
REMARK   81  A    between atoms: _194  and  _197
REMARK   82  A    between atoms: _197  and  _198
REMARK   83  A    between atoms: _201  and  _203
REMARK   84  A    between atoms: _203  and  _204
REMARK   85  A    between atoms: _203  and  _206
REMARK   86  A    between atoms: _206  and  _207
REMARK   87  A    between atoms: _210  and  _212
REMARK   88  A    between atoms: _212  and  _213
REMARK   89  A    between atoms: _215  and  _217
REMARK   90  A    between atoms: _217  and  _218
REMARK   91  A    between atoms: _217  and  _220
REMARK   92  A    between atoms: _220  and  _221
REMARK   93  A    between atoms: _221  and  _222
REMARK   94  A    between atoms: _222  and  _223
REMARK   95  A    between atoms: _232  and  _234
REMARK   96  A    between atoms: _234  and  _235
REMARK   97  A    between atoms: _234  and  _237
REMARK   98  A    between atoms: _237  and  _238
REMARK   99  A    between atoms: _243  and  _245
REMARK  100  A    between atoms: _245  and  _246
REMARK  101  A    between atoms: _245  and  _248
REMARK  102  A    between atoms: _248  and  _249
REMARK  103  A    between atoms: _249  and  _250
REMARK  104  A    between atoms: _250  and  _251
REMARK  105  A    between atoms: _260  and  _262
REMARK  106  A    between atoms: _262  and  _263
REMARK  107  A    between atoms: _262  and  _265
REMARK  108  A    between atoms: _265  and  _266
REMARK  109  A    between atoms: _269  and  _271
REMARK  110  A    between atoms: _271  and  _272
REMARK  111  A    between atoms: _271  and  _274
REMARK  112  A    between atoms: _274  and  _275
REMARK  113  A    between atoms: _278  and  _280
REMARK  114  A    between atoms: _280  and  _281
REMARK  115  A    between atoms: _280  and  _283
REMARK  116  A    between atoms: _283  and  _284
REMARK  117  A    between atoms: _287  and  _289
REMARK  118  A    between atoms: _289  and  _290
REMARK  119  A    between atoms: _289  and  _292
REMARK  120  A    between atoms: _292  and  _293
REMARK  121  A    between atoms: _296  and  _298
REMARK  122  A    between atoms: _298  and  _299
REMARK  123  A    between atoms: _301  and  _303
REMARK  124  A    between atoms: _303  and  _304
REMARK  125  A    between atoms: _307  and  _309
REMARK  126  A    between atoms: _309  and  _310
REMARK  127  A    between atoms: _309  and  _312
REMARK  128  A    between atoms: _312  and  _313
REMARK  129  A    between atoms: _316  and  _318
REMARK  130  A    between atoms: _318  and  _319
REMARK  131  A    between atoms: _318  and  _321
REMARK  132  A    between atoms: _321  and  _322
REMARK  133  A    between atoms: _325  and  _327
REMARK  134  A    between atoms: _327  and  _328
REMARK  135  A    between atoms: _327  and  _330
REMARK  136  A    between atoms: _330  and  _331
REMARK  137  A    between atoms: _334  and  _336
REMARK  138  A    between atoms: _336  and  _337
REMARK  139  A    between atoms: _336  and  _339
REMARK  140  A    between atoms: _339  and  _340
REMARK  141  A    between atoms: _343  and  _345
REMARK  142  A    between atoms: _345  and  _346
REMARK  143  A    between atoms: _345  and  _348
REMARK  144  A    between atoms: _348  and  _349
REMARK  145  A    between atoms: _352  and  _354
REMARK  146  A    between atoms: _354  and  _355
REMARK  147  A    between atoms: _354  and  _357
REMARK  148  A    between atoms: _357  and  _358
REMARK  149  A    between atoms: _358  and  _359
REMARK  150  A    between atoms: _359  and  _360
REMARK  151  A    between atoms: _360  and  _361
REMARK  152  A    between atoms: _365  and  _367
REMARK  153  A    between atoms: _367  and  _368
REMARK  154  A    between atoms: _367  and  _370
REMARK  155  A    between atoms: _370  and  _371
REMARK  156  A    between atoms: _371  and  _372
REMARK  157  A    between atoms: _374  and  _376
REMARK  158  A    between atoms: _376  and  _377
REMARK  159  A    between atoms: _376  and  _379
REMARK  160  A    between atoms: _379  and  _380
REMARK  161  A    between atoms: _383  and  _385
REMARK  162  A    between atoms: _385  and  _386
REMARK  163  A    between atoms: _388  and  _390
REMARK  164  A    between atoms: _390  and  _391
REMARK  165  A    between atoms: _393  and  _395
REMARK  166  A    between atoms: _395  and  _396
REMARK  167  A    between atoms: _395  and  _398
REMARK  168  A    between atoms: _398  and  _399
REMARK  169  A    between atoms: _402  and  _404
REMARK  170  A    between atoms: _404  and  _405
REMARK  171  A    between atoms: _407  and  _409
REMARK  172  A    between atoms: _409  and  _410
REMARK  173  A    between atoms: _412  and  _414
REMARK  174  A    between atoms: _414  and  _415
REMARK  175  A    between atoms: _414  and  _417
REMARK  176  A    between atoms: _417  and  _418
REMARK  177  A    between atoms: _424  and  _426
REMARK  178  A    between atoms: _426  and  _427
REMARK  179  A    between atoms: _426  and  _429
REMARK  180  A    between atoms: _429  and  _430
REMARK  181  A    between atoms: _433  and  _435
REMARK  182  A    between atoms: _435  and  _436
REMARK  183  A    between atoms: _435  and  _438
REMARK  184  A    between atoms: _441  and  _443
REMARK  185  A    between atoms: _443  and  _444
REMARK  186  A    between atoms: _443  and  _446
REMARK  187  A    between atoms: _446  and  _447
REMARK  188  A    between atoms: _450  and  _452
REMARK  189  A    between atoms: _452  and  _453
REMARK  190  A    between atoms: _452  and  _455
REMARK  191  A    between atoms: _455  and  _456
REMARK  192  A    between atoms: _460  and  _461
REMARK  193  A    between atoms: _466  and  _468
REMARK  194  A    between atoms: _468  and  _469
REMARK  195  A    between atoms: _468  and  _471
REMARK  196  A    between atoms: _474  and  _476
REMARK  197  A    between atoms: _476  and  _477
REMARK  198  A    between atoms: _476  and  _479
REMARK  199  A    between atoms: _479  and  _480
REMARK  200  A    between atoms: _485  and  _487
REMARK  201  A    between atoms: _487  and  _488
REMARK  202  A    between atoms: _487  and  _490
REMARK  203  A    between atoms: _490  and  _491
REMARK  204  A    between atoms: _494  and  _496
REMARK  205  A    between atoms: _496  and  _497
REMARK  206  A    between atoms: _496  and  _499
REMARK  207  A    between atoms: _499  and  _500
REMARK  208  A    between atoms: _503  and  _505
REMARK  209  A    between atoms: _505  and  _506
REMARK  210  A    between atoms: _508  and  _510
REMARK  211  A    between atoms: _510  and  _511
REMARK  212  A    between atoms: _510  and  _513
REMARK  213  A    between atoms: _513  and  _514
REMARK  214  A    between atoms: _514  and  _515
REMARK  215  A    between atoms: _515  and  _516
REMARK  216  A    between atoms: _525  and  _527
REMARK  217  A    between atoms: _527  and  _528
REMARK  218  A    between atoms: _527  and  _530
REMARK  219  A    between atoms: _530  and  _531
REMARK                            x       y       z     vdW  Elec       q    Type
REMARK                         _______ _______ _______ _____ _____    ______ ____
ROOT
ATOM      1  NE  ARG A   1      20.960  37.286  23.709  0.00  0.00    -0.265 N 
ATOM      2  HE  ARG A   1      20.349  37.848  24.335  0.00  0.00    +0.259 HD
ATOM      3  CZ  ARG A   1      20.891  37.545  22.399  0.00  0.00    +0.342 C 
ATOM      4  NH2 ARG A   1      20.077  38.510  21.975  0.00  0.00    -0.292 N 
ATOM      5 HH21 ARG A   1      19.508  39.048  22.659  0.00  0.00    +0.255 HD
ATOM      6 HH22 ARG A   1      20.010  38.725  20.960  0.00  0.00    +0.255 HD
ATOM      7  NH1 ARG A   1      21.598  36.848  21.497  0.00  0.00    -0.292 N 
ATOM      8 HH11 ARG A   1      22.224  36.079  21.809  0.00  0.00    +0.255 HD
ATOM      9 HH12 ARG A   1      21.520  37.077  20.486  0.00  0.00    +0.255 HD
ENDROOT
BRANCH   1  10
ATOM     10  CD  ARG A   1      21.820  36.280  24.344  0.00  0.00    +0.174 C 
BRANCH  10  11
ATOM     11  CG  ARG A   1      21.099  35.315  25.256  0.00  0.00    +0.045 C 
BRANCH  11  12
ATOM     12  CB  ARG A   1      22.109  34.452  25.972  0.00  0.00    +0.029 C 
BRANCH  12  13
ATOM     13  CA  ARG A   1      21.504  33.414  26.922  0.00  0.00    +0.133 C 
BRANCH  13  14
ATOM     14  N   ARG A   1      20.790  34.061  28.028  0.00  0.00    -0.239 NA
ATOM     15  H   ARG A   1      20.734  35.099  28.067  0.00  0.00    +0.142 HD
ENDBRANCH  13  14
BRANCH  13  16
ATOM     16  C   ARG A   1      22.642  32.546  27.477  0.00  0.00    +0.224 C 
ATOM     17  O   ARG A   1      23.389  32.987  28.354  0.00  0.00    -0.287 OA
ENDBRANCH  13  16
ENDBRANCH  12  13
ENDBRANCH  11  12
ENDBRANCH  10  11
ENDBRANCH   1  10
TORSDOF 6
REMARK  Name = ../refined-set-2016/4q1x/4q1x_pocket.pdb
REMARK  219 active torsions:
REMARK  status: ('A' for Active; 'I' for Inactive)
REMARK    1  A    between atoms: _1  and  _3
REMARK    2  A    between atoms: _3  and  _4
REMARK    3  A    between atoms: _3  and  _6
REMARK    4  A    between atoms: _6  and  _7
REMARK    5  A    between atoms: _7  and  _8
REMARK    6  A    between atoms: _8  and  _9
REMARK    7  A    between atoms: _18  and  _20
REMARK    8  A    between atoms: _20  and  _21
REMARK    9  A    between atoms: _20  and  _23
REMARK   10  A    between atoms: _23  and  _24
REMARK   11  A    between atoms: _27  and  _29
REMARK   12  A    between atoms: _29  and  _30
REMARK   13  A    between atoms: _29  and  _32
REMARK   14  A    between atoms: _32  and  _33
REMARK   15  A    between atoms: _36  and  _38
REMARK   16  A    between atoms: _38  and  _39
REMARK   17  A    between atoms: _38  and  _41
REMARK   18  A    between atoms: _41  and  _42
REMARK   19  A    between atoms: _45  and  _47
REMARK   20  A    between atoms: _47  and  _48
REMARK   21  A    between atoms: _47  and  _50
REMARK   22  A    between atoms: _50  and  _51
REMARK   23  A    between atoms: _54  and  _56
REMARK   24  A    between atoms: _56  and  _57
REMARK   25  A    between atoms: _59  and  _61
REMARK   26  A    between atoms: _61  and  _62
REMARK   27  A    between atoms: _65  and  _67
REMARK   28  A    between atoms: _67  and  _68
REMARK   29  A    between atoms: _67  and  _70
REMARK   30  A    between atoms: _70  and  _71
REMARK   31  A    between atoms: _74  and  _76
REMARK   32  A    between atoms: _76  and  _77
REMARK   33  A    between atoms: _76  and  _79
REMARK   34  A    between atoms: _79  and  _80
REMARK   35  A    between atoms: _83  and  _85
REMARK   36  A    between atoms: _85  and  _86
REMARK   37  A    between atoms: _85  and  _88
REMARK   38  A    between atoms: _88  and  _89
REMARK   39  A    between atoms: _92  and  _94
REMARK   40  A    between atoms: _94  and  _95
REMARK   41  A    between atoms: _94  and  _97
REMARK   42  A    between atoms: _97  and  _98
REMARK   43  A    between atoms: _101  and  _103
REMARK   44  A    between atoms: _103  and  _104
REMARK   45  A    between atoms: _103  and  _106
REMARK   46  A    between atoms: _106  and  _107
REMARK   47  A    between atoms: _110  and  _112
REMARK   48  A    between atoms: _112  and  _113
REMARK   49  A    between atoms: _115  and  _117
REMARK   50  A    between atoms: _117  and  _118
REMARK   51  A    between atoms: _120  and  _122
REMARK   52  A    between atoms: _122  and  _123
REMARK   53  A    between atoms: _122  and  _125
REMARK   54  A    between atoms: _125  and  _126
REMARK   55  A    between atoms: _129  and  _131
REMARK   56  A    between atoms: _131  and  _132
REMARK   57  A    between atoms: _134  and  _136
REMARK   58  A    between atoms: _136  and  _137
REMARK   59  A    between atoms: _139  and  _141
REMARK   60  A    between atoms: _141  and  _142
REMARK   61  A    between atoms: _141  and  _144
REMARK   62  A    between atoms: _144  and  _145
REMARK   63  A    between atoms: _148  and  _150
REMARK   64  A    between atoms: _150  and  _151
REMARK   65  A    between atoms: _150  and  _153
REMARK   66  A    between atoms: _153  and  _154
REMARK   67  A    between atoms: _157  and  _159
REMARK   68  A    between atoms: _159  and  _160
REMARK   69  A    between atoms: _159  and  _162
REMARK   70  A    between atoms: _162  and  _163
REMARK   71  A    between atoms: _167  and  _168
REMARK   72  A    between atoms: _173  and  _175
REMARK   73  A    between atoms: _175  and  _176
REMARK   74  A    between atoms: _175  and  _178
REMARK   75  A    between atoms: _181  and  _183
REMARK   76  A    between atoms: _183  and  _184
REMARK   77  A    between atoms: _183  and  _186
REMARK   78  A    between atoms: _186  and  _187
REMARK   79  A    between atoms: _192  and  _194
REMARK   80  A    between atoms: _194  and  _195
REMARK   81  A    between atoms: _194  and  _197
REMARK   82  A    between atoms: _197  and  _198
REMARK   83  A    between atoms: _201  and  _203
REMARK   84  A    between atoms: _203  and  _204
REMARK   85  A    between atoms: _203  and  _206
REMARK   86  A    between atoms: _206  and  _207
REMARK   87  A    between atoms: _210  and  _212
REMARK   88  A    between atoms: _212  and  _213
REMARK   89  A    between atoms: _215  and  _217
REMARK   90  A    between atoms: _217  and  _218
REMARK   91  A    between atoms: _217  and  _220
REMARK   92  A    between atoms: _220  and  _221
REMARK   93  A    between atoms: _221  and  _222
REMARK   94  A    between atoms: _222  and  _223
REMARK   95  A    between atoms: _232  and  _234
REMARK   96  A    between atoms: _234  and  _235
REMARK   97  A    between atoms: _234  and  _237
REMARK   98  A    between atoms: _237  and  _238
REMARK   99  A    between atoms: _243  and  _245
REMARK  100  A    between atoms: _245  and  _246
REMARK  101  A    between atoms: _245  and  _248
REMARK  102  A    between atoms: _248  and  _249
REMARK  103  A    between atoms: _249  and  _250
REMARK  104  A    between atoms: _250  and  _251
REMARK  105  A    between atoms: _260  and  _262
REMARK  106  A    between atoms: _262  and  _263
REMARK  107  A    between atoms: _262  and  _265
REMARK  108  A    between atoms: _265  and  _266
REMARK  109  A    between atoms: _269  and  _271
REMARK  110  A    between atoms: _271  and  _272
REMARK  111  A    between atoms: _271  and  _274
REMARK  112  A    between atoms: _274  and  _275
REMARK  113  A    between atoms: _278  and  _280
REMARK  114  A    between atoms: _280  and  _281
REMARK  115  A    between atoms: _280  and  _283
REMARK  116  A    between atoms: _283  and  _284
REMARK  117  A    between atoms: _287  and  _289
REMARK  118  A    between atoms: _289  and  _290
REMARK  119  A    between atoms: _289  and  _292
REMARK  120  A    between atoms: _292  and  _293
REMARK  121  A    between atoms: _296  and  _298
REMARK  122  A    between atoms: _298  and  _299
REMARK  123  A    between atoms: _301  and  _303
REMARK  124  A    between atoms: _303  and  _304
REMARK  125  A    between atoms: _307  and  _309
REMARK  126  A    between atoms: _309  and  _310
REMARK  127  A    between atoms: _309  and  _312
REMARK  128  A    between atoms: _312  and  _313
REMARK  129  A    between atoms: _316  and  _318
REMARK  130  A    between atoms: _318  and  _319
REMARK  131  A    between atoms: _318  and  _321
REMARK  132  A    between atoms: _321  and  _322
REMARK  133  A    between atoms: _325  and  _327
REMARK  134  A    between atoms: _327  and  _328
REMARK  135  A    between atoms: _327  and  _330
REMARK  136  A    between atoms: _330  and  _331
REMARK  137  A    between atoms: _334  and  _336
REMARK  138  A    between atoms: _336  and  _337
REMARK  139  A    between atoms: _336  and  _339
REMARK  140  A    between atoms: _339  and  _340
REMARK  141  A    between atoms: _343  and  _345
REMARK  142  A    between atoms: _345  and  _346
REMARK  143  A    between atoms: _345  and  _348
REMARK  144  A    between atoms: _348  and  _349
REMARK  145  A    between atoms: _352  and  _354
REMARK  146  A    between atoms: _354  and  _355
REMARK  147  A    between atoms: _354  and  _357
REMARK  148  A    between atoms: _357  and  _358
REMARK  149  A    between atoms: _358  and  _359
REMARK  150  A    between atoms: _359  and  _360
REMARK  151  A    between atoms: _360  and  _361
REMARK  152  A    between atoms: _365  and  _367
REMARK  153  A    between atoms: _367  and  _368
REMARK  154  A    between atoms: _367  and  _370
REMARK  155  A    between atoms: _370  and  _371
REMARK  156  A    between atoms: _371  and  _372
REMARK  157  A    between atoms: _374  and  _376
REMARK  158  A    between atoms: _376  and  _377
REMARK  159  A    between atoms: _376  and  _379
REMARK  160  A    between atoms: _379  and  _380
REMARK  161  A    between atoms: _383  and  _385
REMARK  162  A    between atoms: _385  and  _386
REMARK  163  A    between atoms: _388  and  _390
REMARK  164  A    between atoms: _390  and  _391
REMARK  165  A    between atoms: _393  and  _395
REMARK  166  A    between atoms: _395  and  _396
REMARK  167  A    between atoms: _395  and  _398
REMARK  168  A    between atoms: _398  and  _399
REMARK  169  A    between atoms: _402  and  _404
REMARK  170  A    between atoms: _404  and  _405
REMARK  171  A    between atoms: _407  and  _409
REMARK  172  A    between atoms: _409  and  _410
REMARK  173  A    between atoms: _412  and  _414
REMARK  174  A    between atoms: _414  and  _415
REMARK  175  A    between atoms: _414  and  _417
REMARK  176  A    between atoms: _417  and  _418
REMARK  177  A    between atoms: _424  and  _426
REMARK  178  A    between atoms: _426  and  _427
REMARK  179  A    between atoms: _426  and  _429
REMARK  180  A    between atoms: _429  and  _430
REMARK  181  A    between atoms: _433  and  _435
REMARK  182  A    between atoms: _435  and  _436
REMARK  183  A    between atoms: _435  and  _438
REMARK  184  A    between atoms: _441  and  _443
REMARK  185  A    between atoms: _443  and  _444
REMARK  186  A    between atoms: _443  and  _446
REMARK  187  A    between atoms: _446  and  _447
REMARK  188  A    between atoms: _450  and  _452
REMARK  189  A    between atoms: _452  and  _453
REMARK  190  A    between atoms: _452  and  _455
REMARK  191  A    between atoms: _455  and  _456
REMARK  192  A    between atoms: _460  and  _461
REMARK  193  A    between atoms: _466  and  _468
REMARK  194  A    between atoms: _468  and  _469
REMARK  195  A    between atoms: _468  and  _471
REMARK  196  A    between atoms: _474  and  _476
REMARK  197  A    between atoms: _476  and  _477
REMARK  198  A    between atoms: _476  and  _479
REMARK  199  A    between atoms: _479  and  _480
REMARK  200  A    between atoms: _485  and  _487
REMARK  201  A    between atoms: _487  and  _488
REMARK  202  A    between atoms: _487  and  _490
REMARK  203  A    between atoms: _490  and  _491
REMARK  204  A    between atoms: _494  and  _496
REMARK  205  A    between atoms: _496  and  _497
REMARK  206  A    between atoms: _496  and  _499
REMARK  207  A    between atoms: _499  and  _500
REMARK  208  A    between atoms: _503  and  _505
REMARK  209  A    between atoms: _505  and  _506
REMARK  210  A    between atoms: _508  and  _510
REMARK  211  A    between atoms: _510  and  _511
REMARK  212  A    between atoms: _510  and  _513
REMARK  213  A    between atoms: _513  and  _514
REMARK  214  A    between atoms: _514  and  _515
REMARK  215  A    between atoms: _515  and  _516
REMARK  216  A    between atoms: _525  and  _527
REMARK  217  A    between atoms: _527  and  _528
REMARK  218  A    between atoms: _527  and  _530
REMARK  219  A    between atoms: _530  and  _531
REMARK                            x       y       z     vdW  Elec       q    Type
REMARK                         _______ _______ _______ _____ _____    ______ ____
ROOT
ATOM      1  C   GLY A   5      20.584  25.201  15.623  0.00  0.00    +0.243 C 
ATOM      2  N   ALA A   6      21.880  25.179  15.915  0.00  0.00    -0.297 N 
ATOM      3  H   ALA A   6      22.153  25.043  16.909  0.00  0.00    +0.150 HD
ATOM      4  O   GLY A   5      20.168  25.310  14.469  0.00  0.00    -0.273 OA
ENDROOT
BRANCH   2   5
ATOM      5  CA  ALA A   6      22.936  25.333  14.936  0.00  0.00    +0.149 C 
ATOM      6  CB  ALA A   6      23.989  26.349  15.456  0.00  0.00    +0.031 C 
BRANCH   5   7
ATOM      7  C   ALA A   6      23.578  23.961  14.690  0.00  0.00    +0.241 C 
ATOM      8  O   ALA A   6      24.057  23.335  15.632  0.00  0.00    -0.273 OA
ATOM      9  N   ASP A   7      23.574  23.484  13.449  0.00  0.00    -0.297 N 
ATOM     10  H   ASP A   7      23.066  23.999  12.702  0.00  0.00    +0.150 HD
BRANCH   9  11
ATOM     11  CA  ASP A   7      24.281  22.233  13.120  0.00  0.00    +0.160 C 
BRANCH  11  12
ATOM     12  C   ASP A   7      25.782  22.466  13.300  0.00  0.00    +0.241 C 
ATOM     13  O   ASP A   7      26.527  21.597  13.779  0.00  0.00    -0.273 OA
ATOM     14  N   ASP A   8      26.208  23.670  12.928  0.00  0.00    -0.297 N 
ATOM     15  H   ASP A   8      25.496  24.393  12.700  0.00  0.00    +0.150 HD
BRANCH  14  16
ATOM     16  CA  ASP A   8      27.612  24.033  12.822  0.00  0.00    +0.160 C 
BRANCH  16  17
ATOM     17  C   ASP A   8      28.009  25.162  13.759  0.00  0.00    +0.241 C 
ATOM     18  O   ASP A   8      27.185  25.991  14.150  0.00  0.00    -0.273 OA
ATOM     19  N   THR A   9      29.302  25.175  14.068  0.00  0.00    -0.295 N 
ATOM     20  H   THR A   9      29.888  24.394  13.711  0.00  0.00    +0.150 HD
BRANCH  19  21
ATOM     21  CA  THR A   9      29.964  26.199  14.869  0.00  0.00    +0.176 C 
BRANCH  21  22
ATOM     22  C   THR A   9      30.519  27.275  13.951  0.00  0.00    +0.243 C 
ATOM     23  N   ILE A  10      30.095  28.514  14.199  0.00  0.00    -0.298 N 
ATOM     24  H   ILE A  10      29.437  28.665  14.990  0.00  0.00    +0.150 HD
ATOM     25  O   THR A   9      31.280  26.975  13.018  0.00  0.00    -0.273 OA
BRANCH  23  26
ATOM     26  CA  ILE A  10      30.513  29.666  13.410  0.00  0.00    +0.137 C 
BRANCH  26  27
ATOM     27  CB  ILE A  10      29.378  30.264  12.560  0.00  0.00    +0.026 C 
ATOM     28  CG2 ILE A  10      29.962  31.283  11.572  0.00  0.00    +0.002 C 
BRANCH  27  29
ATOM     29  CG1 ILE A  10      28.589  29.192  11.812  0.00  0.00    +0.002 C 
ATOM     30  CD1 ILE A  10      27.581  29.761  10.791  0.00  0.00    +0.000 C 
ENDBRANCH  27  29
ENDBRANCH  26  27
BRANCH  26  31
ATOM     31  C   ILE A  10      31.003  30.763  14.349  0.00  0.00    +0.227 C 
ATOM     32  O   ILE A  10      30.286  31.180  15.249  0.00  0.00    -0.286 OA
ENDBRANCH  26  31
ENDBRANCH  23  26
ENDBRANCH  21  22
BRANCH  21  33
ATOM     33  CB  THR A   9      31.112  25.551  15.667  0.00  0.00    +0.137 C 
ATOM     34  CG2 THR A   9      31.953  26.582  16.416  0.00  0.00    +0.034 C 
BRANCH  33  35
ATOM     35  OG1 THR A   9      30.539  24.593  16.572  0.00  0.00    -0.382 OA
ATOM     36  HG1 THR A   9      30.050  23.904  16.056  0.00  0.00    +0.210 HD
ENDBRANCH  33  35
ENDBRANCH  21  33
ENDBRANCH  19  21
ENDBRANCH  16  17
BRANCH  16  37
ATOM     37  CB  ASP A   8      27.937  24.473  11.396  0.00  0.00    +0.143 C 
BRANCH  37  38
ATOM     38  CG  ASP A   8      27.579  23.437  10.371  0.00  0.00    +0.367 C 
ATOM     39  OD2 ASP A   8      27.866  22.240  10.587  0.00  0.00    -0.246 OA
ATOM     40  OD1 ASP A   8      27.001  23.842   9.342  0.00  0.00    -0.246 OA
ENDBRANCH  37  38
ENDBRANCH  16  37
ENDBRANCH  14  16
ENDBRANCH  11  12
BRANCH  11  41
ATOM     41  CB  ASP A   7      24.026  21.776  11.679  0.00  0.00    +0.143 C 
BRANCH  41  42
ATOM     42  CG  ASP A   7      22.557  21.615  11.328  0.00  0.00    +0.367 C 
ATOM     43  OD2 ASP A   7      21.671  21.512  12.216  0.00  0.00    -0.246 OA
ATOM     44  OD1 ASP A   7      22.305  21.592  10.106  0.00  0.00    -0.246 OA
ENDBRANCH  41  42
ENDBRANCH  11  41
ENDBRANCH   9  11
ENDBRANCH   5   7
ENDBRANCH   2   5
BRANCH   1  45
ATOM     45  CA  GLY A   5      19.616  25.087  16.793  0.00  0.00    +0.176 C 
BRANCH  45  47
ATOM     46  C   THR A   4      20.699  23.753  18.544  0.00  0.00    +0.243 C 
ATOM     47  N   GLY A   5      20.227  24.931  18.123  0.00  0.00    -0.295 N 
ATOM     48  H   GLY A   5      20.293  25.758  18.751  0.00  0.00    +0.150 HD
ATOM     49  O   THR A   4      20.601  22.710  17.875  0.00  0.00    -0.273 OA
BRANCH  46  50
ATOM     50  CA  THR A   4      21.412  23.717  19.904  0.00  0.00    +0.176 C 
BRANCH  50  52
ATOM     51  C   ASP A   3      22.854  25.656  19.654  0.00  0.00    +0.241 C 
ATOM     52  N   THR A   4      21.879  25.043  20.311  0.00  0.00    -0.295 N 
ATOM     53  H   THR A   4      21.439  25.512  21.128  0.00  0.00    +0.150 HD
ATOM     54  O   ASP A   3      23.353  25.182  18.632  0.00  0.00    -0.273 OA
BRANCH  51  55
ATOM     55  CA  ASP A   3      23.298  27.015  20.208  0.00  0.00    +0.160 C 
BRANCH  55  58
ATOM     56  C   LEU A   2      24.360  27.317  22.387  0.00  0.00    +0.241 C 
ATOM     57  O   LEU A   2      23.315  27.683  22.938  0.00  0.00    -0.273 OA
ATOM     58  N   ASP A   3      24.394  26.829  21.147  0.00  0.00    -0.297 N 
ATOM     59  H   ASP A   3      25.233  26.297  20.840  0.00  0.00    +0.150 HD
BRANCH  56  60
ATOM     60  CA  LEU A   2      25.698  27.402  23.111  0.00  0.00    +0.149 C 
BRANCH  60  62
ATOM     61  C   LEU A   1      26.420  29.563  22.254  0.00  0.00    +0.238 C 
ATOM     62  N   LEU A   2      26.044  28.805  23.278  0.00  0.00    -0.297 N 
ATOM     63  H   LEU A   2      25.996  29.227  24.227  0.00  0.00    +0.150 HD
ATOM     64  O   LEU A   1      26.674  29.111  21.133  0.00  0.00    -0.274 OA
BRANCH  61  65
ATOM     65  CA  LEU A   1      26.582  31.043  22.542  0.00  0.00    +0.145 C 
BRANCH  65  66
ATOM     66  N   LEU A   1      27.934  31.450  22.235  0.00  0.00    -0.238 NA
ATOM     67  H   LEU A   1      28.155  31.670  21.243  0.00  0.00    +0.142 HD
ENDBRANCH  65  66
BRANCH  65  68
ATOM     68  CB  LEU A   1      25.620  31.848  21.669  0.00  0.00    +0.026 C 
BRANCH  68  69
ATOM     69  CG  LEU A   1      24.126  31.648  21.839  0.00  0.00    +0.002 C 
ATOM     70  CD2 LEU A   1      23.718  32.319  23.144  0.00  0.00    +0.000 C 
ATOM     71  CD1 LEU A   1      23.363  32.239  20.618  0.00  0.00    +0.000 C 
ENDBRANCH  68  69
ENDBRANCH  65  68
ENDBRANCH  61  65
ENDBRANCH  60  62
BRANCH  60  72
ATOM     72  CB  LEU A   2      25.633  26.723  24.474  0.00  0.00    +0.029 C 
BRANCH  72  73
ATOM     73  CG  LEU A   2      26.941  26.703  25.262  0.00  0.00    +0.002 C 
ATOM     74  CD2 LEU A   2      26.727  25.978  26.598  0.00  0.00    +0.000 C 
ATOM     75  CD1 LEU A   2      28.053  26.082  24.417  0.00  0.00    +0.000 C 
ENDBRANCH  72  73
ENDBRANCH  60  72
ENDBRANCH  56  60
ENDBRANCH  55  58
BRANCH  55  76
ATOM     76  CB  ASP A   3      23.759  27.976  19.094  0.00  0.00    +0.143 C 
BRANCH  76  77
ATOM     77  CG  ASP A   3      22.660  28.324  18.103  0.00  0.00    +0.367 C 
ATOM     78  OD2 ASP A   3      21.559  27.714  18.142  0.00  0.00    -0.246 OA
ATOM     79  OD1 ASP A   3      22.917  29.206  17.251  0.00  0.00    -0.246 OA
ENDBRANCH  76  77
ENDBRANCH  55  76
ENDBRANCH  51  55
ENDBRANCH  50  52
BRANCH  50  80
ATOM     80  CB  THR A   4      20.544  23.052  20.991  0.00  0.00    +0.137 C 
ATOM     81  CG2 THR A   4      21.345  22.870  22.302  0.00  0.00    +0.034 C 
BRANCH  80  82
ATOM     82  OG1 THR A   4      19.395  23.855  21.294  0.00  0.00    -0.382 OA
ATOM     83  HG1 THR A   4      18.849  23.969  20.476  0.00  0.00    +0.210 HD
ENDBRANCH  80  82
ENDBRANCH  50  80
ENDBRANCH  46  50
ENDBRANCH  45  47
ENDBRANCH   1  45
TORSDOF 36
REMARK  Name = ../refined-set-2016/4q1x/4q1x_pocket.pdb
REMARK  219 active torsions:
REMARK  status: ('A' for Active; 'I' for Inactive)
REMARK    1  A    between atoms: _1  and  _3
REMARK    2  A    between atoms: _3  and  _4
REMARK    3  A    between atoms: _3  and  _6
REMARK    4  A    between atoms: _6  and  _7
REMARK    5  A    between atoms: _7  and  _8
REMARK    6  A    between atoms: _8  and  _9
REMARK    7  A    between atoms: _18  and  _20
REMARK    8  A    between atoms: _20  and  _21
REMARK    9  A    between atoms: _20  and  _23
REMARK   10  A    between atoms: _23  and  _24
REMARK   11  A    between atoms: _27  and  _29
REMARK   12  A    between atoms: _29  and  _30
REMARK   13  A    between atoms: _29  and  _32
REMARK   14  A    between atoms: _32  and  _33
REMARK   15  A    between atoms: _36  and  _38
REMARK   16  A    between atoms: _38  and  _39
REMARK   17  A    between atoms: _38  and  _41
REMARK   18  A    between atoms: _41  and  _42
REMARK   19  A    between atoms: _45  and  _47
REMARK   20  A    between atoms: _47  and  _48
REMARK   21  A    between atoms: _47  and  _50
REMARK   22  A    between atoms: _50  and  _51
REMARK   23  A    between atoms: _54  and  _56
REMARK   24  A    between atoms: _56  and  _57
REMARK   25  A    between atoms: _59  and  _61
REMARK   26  A    between atoms: _61  and  _62
REMARK   27  A    between atoms: _65  and  _67
REMARK   28  A    between atoms: _67  and  _68
REMARK   29  A    between atoms: _67  and  _70
REMARK   30  A    between atoms: _70  and  _71
REMARK   31  A    between atoms: _74  and  _76
REMARK   32  A    between atoms: _76  and  _77
REMARK   33  A    between atoms: _76  and  _79
REMARK   34  A    between atoms: _79  and  _80
REMARK   35  A    between atoms: _83  and  _85
REMARK   36  A    between atoms: _85  and  _86
REMARK   37  A    between atoms: _85  and  _88
REMARK   38  A    between atoms: _88  and  _89
REMARK   39  A    between atoms: _92  and  _94
REMARK   40  A    between atoms: _94  and  _95
REMARK   41  A    between atoms: _94  and  _97
REMARK   42  A    between atoms: _97  and  _98
REMARK   43  A    between atoms: _101  and  _103
REMARK   44  A    between atoms: _103  and  _104
REMARK   45  A    between atoms: _103  and  _106
REMARK   46  A    between atoms: _106  and  _107
REMARK   47  A    between atoms: _110  and  _112
REMARK   48  A    between atoms: _112  and  _113
REMARK   49  A    between atoms: _115  and  _117
REMARK   50  A    between atoms: _117  and  _118
REMARK   51  A    between atoms: _120  and  _122
REMARK   52  A    between atoms: _122  and  _123
REMARK   53  A    between atoms: _122  and  _125
REMARK   54  A    between atoms: _125  and  _126
REMARK   55  A    between atoms: _129  and  _131
REMARK   56  A    between atoms: _131  and  _132
REMARK   57  A    between atoms: _134  and  _136
REMARK   58  A    between atoms: _136  and  _137
REMARK   59  A    between atoms: _139  and  _141
REMARK   60  A    between atoms: _141  and  _142
REMARK   61  A    between atoms: _141  and  _144
REMARK   62  A    between atoms: _144  and  _145
REMARK   63  A    between atoms: _148  and  _150
REMARK   64  A    between atoms: _150  and  _151
REMARK   65  A    between atoms: _150  and  _153
REMARK   66  A    between atoms: _153  and  _154
REMARK   67  A    between atoms: _157  and  _159
REMARK   68  A    between atoms: _159  and  _160
REMARK   69  A    between atoms: _159  and  _162
REMARK   70  A    between atoms: _162  and  _163
REMARK   71  A    between atoms: _167  and  _168
REMARK   72  A    between atoms: _173  and  _175
REMARK   73  A    between atoms: _175  and  _176
REMARK   74  A    between atoms: _175  and  _178
REMARK   75  A    between atoms: _181  and  _183
REMARK   76  A    between atoms: _183  and  _184
REMARK   77  A    between atoms: _183  and  _186
REMARK   78  A    between atoms: _186  and  _187
REMARK   79  A    between atoms: _192  and  _194
REMARK   80  A    between atoms: _194  and  _195
REMARK   81  A    between atoms: _194  and  _197
REMARK   82  A    between atoms: _197  and  _198
REMARK   83  A    between atoms: _201  and  _203
REMARK   84  A    between atoms: _203  and  _204
REMARK   85  A    between atoms: _203  and  _206
REMARK   86  A    between atoms: _206  and  _207
REMARK   87  A    between atoms: _210  and  _212
REMARK   88  A    between atoms: _212  and  _213
REMARK   89  A    between atoms: _215  and  _217
REMARK   90  A    between atoms: _217  and  _218
REMARK   91  A    between atoms: _217  and  _220
REMARK   92  A    between atoms: _220  and  _221
REMARK   93  A    between atoms: _221  and  _222
REMARK   94  A    between atoms: _222  and  _223
REMARK   95  A    between atoms: _232  and  _234
REMARK   96  A    between atoms: _234  and  _235
REMARK   97  A    between atoms: _234  and  _237
REMARK   98  A    between atoms: _237  and  _238
REMARK   99  A    between atoms: _243  and  _245
REMARK  100  A    between atoms: _245  and  _246
REMARK  101  A    between atoms: _245  and  _248
REMARK  102  A    between atoms: _248  and  _249
REMARK  103  A    between atoms: _249  and  _250
REMARK  104  A    between atoms: _250  and  _251
REMARK  105  A    between atoms: _260  and  _262
REMARK  106  A    between atoms: _262  and  _263
REMARK  107  A    between atoms: _262  and  _265
REMARK  108  A    between atoms: _265  and  _266
REMARK  109  A    between atoms: _269  and  _271
REMARK  110  A    between atoms: _271  and  _272
REMARK  111  A    between atoms: _271  and  _274
REMARK  112  A    between atoms: _274  and  _275
REMARK  113  A    between atoms: _278  and  _280
REMARK  114  A    between atoms: _280  and  _281
REMARK  115  A    between atoms: _280  and  _283
REMARK  116  A    between atoms: _283  and  _284
REMARK  117  A    between atoms: _287  and  _289
REMARK  118  A    between atoms: _289  and  _290
REMARK  119  A    between atoms: _289  and  _292
REMARK  120  A    between atoms: _292  and  _293
REMARK  121  A    between atoms: _296  and  _298
REMARK  122  A    between atoms: _298  and  _299
REMARK  123  A    between atoms: _301  and  _303
REMARK  124  A    between atoms: _303  and  _304
REMARK  125  A    between atoms: _307  and  _309
REMARK  126  A    between atoms: _309  and  _310
REMARK  127  A    between atoms: _309  and  _312
REMARK  128  A    between atoms: _312  and  _313
REMARK  129  A    between atoms: _316  and  _318
REMARK  130  A    between atoms: _318  and  _319
REMARK  131  A    between atoms: _318  and  _321
REMARK  132  A    between atoms: _321  and  _322
REMARK  133  A    between atoms: _325  and  _327
REMARK  134  A    between atoms: _327  and  _328
REMARK  135  A    between atoms: _327  and  _330
REMARK  136  A    between atoms: _330  and  _331
REMARK  137  A    between atoms: _334  and  _336
REMARK  138  A    between atoms: _336  and  _337
REMARK  139  A    between atoms: _336  and  _339
REMARK  140  A    between atoms: _339  and  _340
REMARK  141  A    between atoms: _343  and  _345
REMARK  142  A    between atoms: _345  and  _346
REMARK  143  A    between atoms: _345  and  _348
REMARK  144  A    between atoms: _348  and  _349
REMARK  145  A    between atoms: _352  and  _354
REMARK  146  A    between atoms: _354  and  _355
REMARK  147  A    between atoms: _354  and  _357
REMARK  148  A    between atoms: _357  and  _358
REMARK  149  A    between atoms: _358  and  _359
REMARK  150  A    between atoms: _359  and  _360
REMARK  151  A    between atoms: _360  and  _361
REMARK  152  A    between atoms: _365  and  _367
REMARK  153  A    between atoms: _367  and  _368
REMARK  154  A    between atoms: _367  and  _370
REMARK  155  A    between atoms: _370  and  _371
REMARK  156  A    between atoms: _371  and  _372
REMARK  157  A    between atoms: _374  and  _376
REMARK  158  A    between atoms: _376  and  _377
REMARK  159  A    between atoms: _376  and  _379
REMARK  160  A    between atoms: _379  and  _380
REMARK  161  A    between atoms: _383  and  _385
REMARK  162  A    between atoms: _385  and  _386
REMARK  163  A    between atoms: _388  and  _390
REMARK  164  A    between atoms: _390  and  _391
REMARK  165  A    between atoms: _393  and  _395
REMARK  166  A    between atoms: _395  and  _396
REMARK  167  A    between atoms: _395  and  _398
REMARK  168  A    between atoms: _398  and  _399
REMARK  169  A    between atoms: _402  and  _404
REMARK  170  A    between atoms: _404  and  _405
REMARK  171  A    between atoms: _407  and  _409
REMARK  172  A    between atoms: _409  and  _410
REMARK  173  A    between atoms: _412  and  _414
REMARK  174  A    between atoms: _414  and  _415
REMARK  175  A    between atoms: _414  and  _417
REMARK  176  A    between atoms: _417  and  _418
REMARK  177  A    between atoms: _424  and  _426
REMARK  178  A    between atoms: _426  and  _427
REMARK  179  A    between atoms: _426  and  _429
REMARK  180  A    between atoms: _429  and  _430
REMARK  181  A    between atoms: _433  and  _435
REMARK  182  A    between atoms: _435  and  _436
REMARK  183  A    between atoms: _435  and  _438
REMARK  184  A    between atoms: _441  and  _443
REMARK  185  A    between atoms: _443  and  _444
REMARK  186  A    between atoms: _443  and  _446
REMARK  187  A    between atoms: _446  and  _447
REMARK  188  A    between atoms: _450  and  _452
REMARK  189  A    between atoms: _452  and  _453
REMARK  190  A    between atoms: _452  and  _455
REMARK  191  A    between atoms: _455  and  _456
REMARK  192  A    between atoms: _460  and  _461
REMARK  193  A    between atoms: _466  and  _468
REMARK  194  A    between atoms: _468  and  _469
REMARK  195  A    between atoms: _468  and  _471
REMARK  196  A    between atoms: _474  and  _476
REMARK  197  A    between atoms: _476  and  _477
REMARK  198  A    between atoms: _476  and  _479
REMARK  199  A    between atoms: _479  and  _480
REMARK  200  A    between atoms: _485  and  _487
REMARK  201  A    between atoms: _487  and  _488
REMARK  202  A    between atoms: _487  and  _490
REMARK  203  A    between atoms: _490  and  _491
REMARK  204  A    between atoms: _494  and  _496
REMARK  205  A    between atoms: _496  and  _497
REMARK  206  A    between atoms: _496  and  _499
REMARK  207  A    between atoms: _499  and  _500
REMARK  208  A    between atoms: _503  and  _505
REMARK  209  A    between atoms: _505  and  _506
REMARK  210  A    between atoms: _508  and  _510
REMARK  211  A    between atoms: _510  and  _511
REMARK  212  A    between atoms: _510  and  _513
REMARK  213  A    between atoms: _513  and  _514
REMARK  214  A    between atoms: _514  and  _515
REMARK  215  A    between atoms: _515  and  _516
REMARK  216  A    between atoms: _525  and  _527
REMARK  217  A    between atoms: _527  and  _528
REMARK  218  A    between atoms: _527  and  _530
REMARK  219  A    between atoms: _530  and  _531
REMARK                            x       y       z     vdW  Elec       q    Type
REMARK                         _______ _______ _______ _____ _____    ______ ____
ROOT
ATOM      1  C   GLY A   3      19.183  31.319   8.239  0.00  0.00    +0.243 C 
ATOM      2  N   ILE A   4      18.663  31.966   9.272  0.00  0.00    -0.297 N 
ATOM      3  H   ILE A   4      19.239  32.111  10.126  0.00  0.00    +0.150 HD
ATOM      4  O   GLY A   3      18.618  31.236   7.142  0.00  0.00    -0.273 OA
ENDROOT
BRANCH   2   5
ATOM      5  CA  ILE A   4      17.301  32.478   9.235  0.00  0.00    +0.149 C 
BRANCH   5   6
ATOM      6  C   ILE A   4      17.139  33.586   8.190  0.00  0.00    +0.241 C 
ATOM      7  N   GLY A   5      18.219  34.308   7.898  0.00  0.00    -0.295 N 
ATOM      8  H   GLY A   5      19.138  34.030   8.299  0.00  0.00    +0.150 HD
ATOM      9  O   ILE A   4      16.055  33.787   7.642  0.00  0.00    -0.273 OA
BRANCH   7  10
ATOM     10  CA  GLY A   5      18.147  35.484   7.027  0.00  0.00    +0.176 C 
BRANCH  10  11
ATOM     11  C   GLY A   5      18.714  35.330   5.635  0.00  0.00    +0.243 C 
ATOM     12  N   GLY A   6      19.187  34.137   5.300  0.00  0.00    -0.296 N 
ATOM     13  H   GLY A   6      19.136  33.355   5.983  0.00  0.00    +0.150 HD
ATOM     14  O   GLY A   5      18.703  36.284   4.856  0.00  0.00    -0.273 OA
BRANCH  12  15
ATOM     15  CA  GLY A   6      19.769  33.911   4.006  0.00  0.00    +0.163 C 
BRANCH  15  16
ATOM     16  C   GLY A   6      21.092  33.204   4.142  0.00  0.00    +0.229 C 
ATOM     17  O   GLY A   6      21.394  32.604   5.194  0.00  0.00    -0.286 OA
ENDBRANCH  15  16
ENDBRANCH  12  15
ENDBRANCH  10  11
ENDBRANCH   7  10
ENDBRANCH   5   6
BRANCH   5  18
ATOM     18  CB  ILE A   4      16.854  32.963  10.631  0.00  0.00    +0.027 C 
ATOM     19  CG2 ILE A   4      17.400  34.329  10.914  0.00  0.00    +0.002 C 
BRANCH  18  20
ATOM     20  CG1 ILE A   4      15.329  32.903  10.765  0.00  0.00    +0.002 C 
ATOM     21  CD1 ILE A   4      14.869  33.030  12.193  0.00  0.00    +0.000 C 
ENDBRANCH  18  20
ENDBRANCH   5  18
ENDBRANCH   2   5
BRANCH   1  22
ATOM     22  CA  GLY A   3      20.560  30.719   8.457  0.00  0.00    +0.176 C 
BRANCH  22  25
ATOM     23  C   GLY A   2      21.759  29.429   6.778  0.00  0.00    +0.243 C 
ATOM     24  O   GLY A   2      21.880  28.458   7.520  0.00  0.00    -0.273 OA
ATOM     25  N   GLY A   3      21.210  30.576   7.159  0.00  0.00    -0.295 N 
ATOM     26  H   GLY A   3      21.244  31.393   6.516  0.00  0.00    +0.150 HD
BRANCH  23  27
ATOM     27  CA  GLY A   2      22.248  29.367   5.342  0.00  0.00    +0.176 C 
BRANCH  27  29
ATOM     28  C   ILE A   1      24.665  29.248   4.975  0.00  0.00    +0.238 C 
ATOM     29  N   GLY A   2      23.510  28.641   5.233  0.00  0.00    -0.296 N 
ATOM     30  H   GLY A   2      23.506  27.609   5.362  0.00  0.00    +0.150 HD
ATOM     31  O   ILE A   1      24.773  30.459   4.856  0.00  0.00    -0.274 OA
BRANCH  28  32
ATOM     32  CA  ILE A   1      25.891  28.345   4.835  0.00  0.00    +0.145 C 
BRANCH  32  33
ATOM     33  N   ILE A   1      26.858  28.904   3.901  0.00  0.00    -0.238 NA
ATOM     34  H   ILE A   1      27.064  29.923   3.924  0.00  0.00    +0.142 HD
ENDBRANCH  32  33
BRANCH  32  35
ATOM     35  CB  ILE A   1      26.551  28.038   6.196  0.00  0.00    +0.025 C 
ATOM     36  CG2 ILE A   1      26.845  29.325   6.981  0.00  0.00    +0.002 C 
BRANCH  35  37
ATOM     37  CG1 ILE A   1      25.699  27.061   7.003  0.00  0.00    +0.002 C 
ATOM     38  CD1 ILE A   1      26.437  26.507   8.223  0.00  0.00    +0.000 C 
ENDBRANCH  35  37
ENDBRANCH  32  35
ENDBRANCH  28  32
ENDBRANCH  27  29
ENDBRANCH  23  27
ENDBRANCH  22  25
ENDBRANCH   1  22
TORSDOF 16
REMARK  Name = ../refined-set-2016/4q1x/4q1x_pocket.pdb
REMARK  219 active torsions:
REMARK  status: ('A' for Active; 'I' for Inactive)
REMARK    1  A    between atoms: _1  and  _3
REMARK    2  A    between atoms: _3  and  _4
REMARK    3  A    between atoms: _3  and  _6
REMARK    4  A    between atoms: _6  and  _7
REMARK    5  A    between atoms: _7  and  _8
REMARK    6  A    between atoms: _8  and  _9
REMARK    7  A    between atoms: _18  and  _20
REMARK    8  A    between atoms: _20  and  _21
REMARK    9  A    between atoms: _20  and  _23
REMARK   10  A    between atoms: _23  and  _24
REMARK   11  A    between atoms: _27  and  _29
REMARK   12  A    between atoms: _29  and  _30
REMARK   13  A    between atoms: _29  and  _32
REMARK   14  A    between atoms: _32  and  _33
REMARK   15  A    between atoms: _36  and  _38
REMARK   16  A    between atoms: _38  and  _39
REMARK   17  A    between atoms: _38  and  _41
REMARK   18  A    between atoms: _41  and  _42
REMARK   19  A    between atoms: _45  and  _47
REMARK   20  A    between atoms: _47  and  _48
REMARK   21  A    between atoms: _47  and  _50
REMARK   22  A    between atoms: _50  and  _51
REMARK   23  A    between atoms: _54  and  _56
REMARK   24  A    between atoms: _56  and  _57
REMARK   25  A    between atoms: _59  and  _61
REMARK   26  A    between atoms: _61  and  _62
REMARK   27  A    between atoms: _65  and  _67
REMARK   28  A    between atoms: _67  and  _68
REMARK   29  A    between atoms: _67  and  _70
REMARK   30  A    between atoms: _70  and  _71
REMARK   31  A    between atoms: _74  and  _76
REMARK   32  A    between atoms: _76  and  _77
REMARK   33  A    between atoms: _76  and  _79
REMARK   34  A    between atoms: _79  and  _80
REMARK   35  A    between atoms: _83  and  _85
REMARK   36  A    between atoms: _85  and  _86
REMARK   37  A    between atoms: _85  and  _88
REMARK   38  A    between atoms: _88  and  _89
REMARK   39  A    between atoms: _92  and  _94
REMARK   40  A    between atoms: _94  and  _95
REMARK   41  A    between atoms: _94  and  _97
REMARK   42  A    between atoms: _97  and  _98
REMARK   43  A    between atoms: _101  and  _103
REMARK   44  A    between atoms: _103  and  _104
REMARK   45  A    between atoms: _103  and  _106
REMARK   46  A    between atoms: _106  and  _107
REMARK   47  A    between atoms: _110  and  _112
REMARK   48  A    between atoms: _112  and  _113
REMARK   49  A    between atoms: _115  and  _117
REMARK   50  A    between atoms: _117  and  _118
REMARK   51  A    between atoms: _120  and  _122
REMARK   52  A    between atoms: _122  and  _123
REMARK   53  A    between atoms: _122  and  _125
REMARK   54  A    between atoms: _125  and  _126
REMARK   55  A    between atoms: _129  and  _131
REMARK   56  A    between atoms: _131  and  _132
REMARK   57  A    between atoms: _134  and  _136
REMARK   58  A    between atoms: _136  and  _137
REMARK   59  A    between atoms: _139  and  _141
REMARK   60  A    between atoms: _141  and  _142
REMARK   61  A    between atoms: _141  and  _144
REMARK   62  A    between atoms: _144  and  _145
REMARK   63  A    between atoms: _148  and  _150
REMARK   64  A    between atoms: _150  and  _151
REMARK   65  A    between atoms: _150  and  _153
REMARK   66  A    between atoms: _153  and  _154
REMARK   67  A    between atoms: _157  and  _159
REMARK   68  A    between atoms: _159  and  _160
REMARK   69  A    between atoms: _159  and  _162
REMARK   70  A    between atoms: _162  and  _163
REMARK   71  A    between atoms: _167  and  _168
REMARK   72  A    between atoms: _173  and  _175
REMARK   73  A    between atoms: _175  and  _176
REMARK   74  A    between atoms: _175  and  _178
REMARK   75  A    between atoms: _181  and  _183
REMARK   76  A    between atoms: _183  and  _184
REMARK   77  A    between atoms: _183  and  _186
REMARK   78  A    between atoms: _186  and  _187
REMARK   79  A    between atoms: _192  and  _194
REMARK   80  A    between atoms: _194  and  _195
REMARK   81  A    between atoms: _194  and  _197
REMARK   82  A    between atoms: _197  and  _198
REMARK   83  A    between atoms: _201  and  _203
REMARK   84  A    between atoms: _203  and  _204
REMARK   85  A    between atoms: _203  and  _206
REMARK   86  A    between atoms: _206  and  _207
REMARK   87  A    between atoms: _210  and  _212
REMARK   88  A    between atoms: _212  and  _213
REMARK   89  A    between atoms: _215  and  _217
REMARK   90  A    between atoms: _217  and  _218
REMARK   91  A    between atoms: _217  and  _220
REMARK   92  A    between atoms: _220  and  _221
REMARK   93  A    between atoms: _221  and  _222
REMARK   94  A    between atoms: _222  and  _223
REMARK   95  A    between atoms: _232  and  _234
REMARK   96  A    between atoms: _234  and  _235
REMARK   97  A    between atoms: _234  and  _237
REMARK   98  A    between atoms: _237  and  _238
REMARK   99  A    between atoms: _243  and  _245
REMARK  100  A    between atoms: _245  and  _246
REMARK  101  A    between atoms: _245  and  _248
REMARK  102  A    between atoms: _248  and  _249
REMARK  103  A    between atoms: _249  and  _250
REMARK  104  A    between atoms: _250  and  _251
REMARK  105  A    between atoms: _260  and  _262
REMARK  106  A    between atoms: _262  and  _263
REMARK  107  A    between atoms: _262  and  _265
REMARK  108  A    between atoms: _265  and  _266
REMARK  109  A    between atoms: _269  and  _271
REMARK  110  A    between atoms: _271  and  _272
REMARK  111  A    between atoms: _271  and  _274
REMARK  112  A    between atoms: _274  and  _275
REMARK  113  A    between atoms: _278  and  _280
REMARK  114  A    between atoms: _280  and  _281
REMARK  115  A    between atoms: _280  and  _283
REMARK  116  A    between atoms: _283  and  _284
REMARK  117  A    between atoms: _287  and  _289
REMARK  118  A    between atoms: _289  and  _290
REMARK  119  A    between atoms: _289  and  _292
REMARK  120  A    between atoms: _292  and  _293
REMARK  121  A    between atoms: _296  and  _298
REMARK  122  A    between atoms: _298  and  _299
REMARK  123  A    between atoms: _301  and  _303
REMARK  124  A    between atoms: _303  and  _304
REMARK  125  A    between atoms: _307  and  _309
REMARK  126  A    between atoms: _309  and  _310
REMARK  127  A    between atoms: _309  and  _312
REMARK  128  A    between atoms: _312  and  _313
REMARK  129  A    between atoms: _316  and  _318
REMARK  130  A    between atoms: _318  and  _319
REMARK  131  A    between atoms: _318  and  _321
REMARK  132  A    between atoms: _321  and  _322
REMARK  133  A    between atoms: _325  and  _327
REMARK  134  A    between atoms: _327  and  _328
REMARK  135  A    between atoms: _327  and  _330
REMARK  136  A    between atoms: _330  and  _331
REMARK  137  A    between atoms: _334  and  _336
REMARK  138  A    between atoms: _336  and  _337
REMARK  139  A    between atoms: _336  and  _339
REMARK  140  A    between atoms: _339  and  _340
REMARK  141  A    between atoms: _343  and  _345
REMARK  142  A    between atoms: _345  and  _346
REMARK  143  A    between atoms: _345  and  _348
REMARK  144  A    between atoms: _348  and  _349
REMARK  145  A    between atoms: _352  and  _354
REMARK  146  A    between atoms: _354  and  _355
REMARK  147  A    between atoms: _354  and  _357
REMARK  148  A    between atoms: _357  and  _358
REMARK  149  A    between atoms: _358  and  _359
REMARK  150  A    between atoms: _359  and  _360
REMARK  151  A    between atoms: _360  and  _361
REMARK  152  A    between atoms: _365  and  _367
REMARK  153  A    between atoms: _367  and  _368
REMARK  154  A    between atoms: _367  and  _370
REMARK  155  A    between atoms: _370  and  _371
REMARK  156  A    between atoms: _371  and  _372
REMARK  157  A    between atoms: _374  and  _376
REMARK  158  A    between atoms: _376  and  _377
REMARK  159  A    between atoms: _376  and  _379
REMARK  160  A    between atoms: _379  and  _380
REMARK  161  A    between atoms: _383  and  _385
REMARK  162  A    between atoms: _385  and  _386
REMARK  163  A    between atoms: _388  and  _390
REMARK  164  A    between atoms: _390  and  _391
REMARK  165  A    between atoms: _393  and  _395
REMARK  166  A    between atoms: _395  and  _396
REMARK  167  A    between atoms: _395  and  _398
REMARK  168  A    between atoms: _398  and  _399
REMARK  169  A    between atoms: _402  and  _404
REMARK  170  A    between atoms: _404  and  _405
REMARK  171  A    between atoms: _407  and  _409
REMARK  172  A    between atoms: _409  and  _410
REMARK  173  A    between atoms: _412  and  _414
REMARK  174  A    between atoms: _414  and  _415
REMARK  175  A    between atoms: _414  and  _417
REMARK  176  A    between atoms: _417  and  _418
REMARK  177  A    between atoms: _424  and  _426
REMARK  178  A    between atoms: _426  and  _427
REMARK  179  A    between atoms: _426  and  _429
REMARK  180  A    between atoms: _429  and  _430
REMARK  181  A    between atoms: _433  and  _435
REMARK  182  A    between atoms: _435  and  _436
REMARK  183  A    between atoms: _435  and  _438
REMARK  184  A    between atoms: _441  and  _443
REMARK  185  A    between atoms: _443  and  _444
REMARK  186  A    between atoms: _443  and  _446
REMARK  187  A    between atoms: _446  and  _447
REMARK  188  A    between atoms: _450  and  _452
REMARK  189  A    between atoms: _452  and  _453
REMARK  190  A    between atoms: _452  and  _455
REMARK  191  A    between atoms: _455  and  _456
REMARK  192  A    between atoms: _460  and  _461
REMARK  193  A    between atoms: _466  and  _468
REMARK  194  A    between atoms: _468  and  _469
REMARK  195  A    between atoms: _468  and  _471
REMARK  196  A    between atoms: _474  and  _476
REMARK  197  A    between atoms: _476  and  _477
REMARK  198  A    between atoms: _476  and  _479
REMARK  199  A    between atoms: _479  and  _480
REMARK  200  A    between atoms: _485  and  _487
REMARK  201  A    between atoms: _487  and  _488
REMARK  202  A    between atoms: _487  and  _490
REMARK  203  A    between atoms: _490  and  _491
REMARK  204  A    between atoms: _494  and  _496
REMARK  205  A    between atoms: _496  and  _497
REMARK  206  A    between atoms: _496  and  _499
REMARK  207  A    between atoms: _499  and  _500
REMARK  208  A    between atoms: _503  and  _505
REMARK  209  A    between atoms: _505  and  _506
REMARK  210  A    between atoms: _508  and  _510
REMARK  211  A    between atoms: _510  and  _511
REMARK  212  A    between atoms: _510  and  _513
REMARK  213  A    between atoms: _513  and  _514
REMARK  214  A    between atoms: _514  and  _515
REMARK  215  A    between atoms: _515  and  _516
REMARK  216  A    between atoms: _525  and  _527
REMARK  217  A    between atoms: _527  and  _528
REMARK  218  A    between atoms: _527  and  _530
REMARK  219  A    between atoms: _530  and  _531
REMARK                            x       y       z     vdW  Elec       q    Type
REMARK                         _______ _______ _______ _____ _____    ______ ____
ROOT
ATOM      1  CA  ILE A   1      26.581  33.676   3.871  0.00  0.00    +0.133 C 
ENDROOT
BRANCH   1   2
ATOM      2  N   ILE A   1      25.336  32.950   3.761  0.00  0.00    -0.239 NA
ATOM      3  H   ILE A   1      25.253  32.004   4.184  0.00  0.00    +0.142 HD
ENDBRANCH   1   2
BRANCH   1   4
ATOM      4  CB  ILE A   1      26.844  34.115   5.319  0.00  0.00    +0.023 C 
ATOM      5  CG2 ILE A   1      25.720  35.025   5.793  0.00  0.00    +0.002 C 
BRANCH   4   6
ATOM      6  CG1 ILE A   1      26.927  32.908   6.264  0.00  0.00    +0.002 C 
ATOM      7  CD1 ILE A   1      27.558  33.224   7.601  0.00  0.00    +0.000 C 
ENDBRANCH   4   6
ENDBRANCH   1   4
BRANCH   1   8
ATOM      8  C   ILE A   1      27.745  32.822   3.393  0.00  0.00    +0.224 C 
ATOM      9  O   ILE A   1      27.641  31.606   3.267  0.00  0.00    -0.287 OA
ENDBRANCH   1   8
TORSDOF 4
REMARK  Name = ../refined-set-2016/4q1x/4q1x_pocket.pdb
REMARK  219 active torsions:
REMARK  status: ('A' for Active; 'I' for Inactive)
REMARK    1  A    between atoms: _1  and  _3
REMARK    2  A    between atoms: _3  and  _4
REMARK    3  A    between atoms: _3  and  _6
REMARK    4  A    between atoms: _6  and  _7
REMARK    5  A    between atoms: _7  and  _8
REMARK    6  A    between atoms: _8  and  _9
REMARK    7  A    between atoms: _18  and  _20
REMARK    8  A    between atoms: _20  and  _21
REMARK    9  A    between atoms: _20  and  _23
REMARK   10  A    between atoms: _23  and  _24
REMARK   11  A    between atoms: _27  and  _29
REMARK   12  A    between atoms: _29  and  _30
REMARK   13  A    between atoms: _29  and  _32
REMARK   14  A    between atoms: _32  and  _33
REMARK   15  A    between atoms: _36  and  _38
REMARK   16  A    between atoms: _38  and  _39
REMARK   17  A    between atoms: _38  and  _41
REMARK   18  A    between atoms: _41  and  _42
REMARK   19  A    between atoms: _45  and  _47
REMARK   20  A    between atoms: _47  and  _48
REMARK   21  A    between atoms: _47  and  _50
REMARK   22  A    between atoms: _50  and  _51
REMARK   23  A    between atoms: _54  and  _56
REMARK   24  A    between atoms: _56  and  _57
REMARK   25  A    between atoms: _59  and  _61
REMARK   26  A    between atoms: _61  and  _62
REMARK   27  A    between atoms: _65  and  _67
REMARK   28  A    between atoms: _67  and  _68
REMARK   29  A    between atoms: _67  and  _70
REMARK   30  A    between atoms: _70  and  _71
REMARK   31  A    between atoms: _74  and  _76
REMARK   32  A    between atoms: _76  and  _77
REMARK   33  A    between atoms: _76  and  _79
REMARK   34  A    between atoms: _79  and  _80
REMARK   35  A    between atoms: _83  and  _85
REMARK   36  A    between atoms: _85  and  _86
REMARK   37  A    between atoms: _85  and  _88
REMARK   38  A    between atoms: _88  and  _89
REMARK   39  A    between atoms: _92  and  _94
REMARK   40  A    between atoms: _94  and  _95
REMARK   41  A    between atoms: _94  and  _97
REMARK   42  A    between atoms: _97  and  _98
REMARK   43  A    between atoms: _101  and  _103
REMARK   44  A    between atoms: _103  and  _104
REMARK   45  A    between atoms: _103  and  _106
REMARK   46  A    between atoms: _106  and  _107
REMARK   47  A    between atoms: _110  and  _112
REMARK   48  A    between atoms: _112  and  _113
REMARK   49  A    between atoms: _115  and  _117
REMARK   50  A    between atoms: _117  and  _118
REMARK   51  A    between atoms: _120  and  _122
REMARK   52  A    between atoms: _122  and  _123
REMARK   53  A    between atoms: _122  and  _125
REMARK   54  A    between atoms: _125  and  _126
REMARK   55  A    between atoms: _129  and  _131
REMARK   56  A    between atoms: _131  and  _132
REMARK   57  A    between atoms: _134  and  _136
REMARK   58  A    between atoms: _136  and  _137
REMARK   59  A    between atoms: _139  and  _141
REMARK   60  A    between atoms: _141  and  _142
REMARK   61  A    between atoms: _141  and  _144
REMARK   62  A    between atoms: _144  and  _145
REMARK   63  A    between atoms: _148  and  _150
REMARK   64  A    between atoms: _150  and  _151
REMARK   65  A    between atoms: _150  and  _153
REMARK   66  A    between atoms: _153  and  _154
REMARK   67  A    between atoms: _157  and  _159
REMARK   68  A    between atoms: _159  and  _160
REMARK   69  A    between atoms: _159  and  _162
REMARK   70  A    between atoms: _162  and  _163
REMARK   71  A    between atoms: _167  and  _168
REMARK   72  A    between atoms: _173  and  _175
REMARK   73  A    between atoms: _175  and  _176
REMARK   74  A    between atoms: _175  and  _178
REMARK   75  A    between atoms: _181  and  _183
REMARK   76  A    between atoms: _183  and  _184
REMARK   77  A    between atoms: _183  and  _186
REMARK   78  A    between atoms: _186  and  _187
REMARK   79  A    between atoms: _192  and  _194
REMARK   80  A    between atoms: _194  and  _195
REMARK   81  A    between atoms: _194  and  _197
REMARK   82  A    between atoms: _197  and  _198
REMARK   83  A    between atoms: _201  and  _203
REMARK   84  A    between atoms: _203  and  _204
REMARK   85  A    between atoms: _203  and  _206
REMARK   86  A    between atoms: _206  and  _207
REMARK   87  A    between atoms: _210  and  _212
REMARK   88  A    between atoms: _212  and  _213
REMARK   89  A    between atoms: _215  and  _217
REMARK   90  A    between atoms: _217  and  _218
REMARK   91  A    between atoms: _217  and  _220
REMARK   92  A    between atoms: _220  and  _221
REMARK   93  A    between atoms: _221  and  _222
REMARK   94  A    between atoms: _222  and  _223
REMARK   95  A    between atoms: _232  and  _234
REMARK   96  A    between atoms: _234  and  _235
REMARK   97  A    between atoms: _234  and  _237
REMARK   98  A    between atoms: _237  and  _238
REMARK   99  A    between atoms: _243  and  _245
REMARK  100  A    between atoms: _245  and  _246
REMARK  101  A    between atoms: _245  and  _248
REMARK  102  A    between atoms: _248  and  _249
REMARK  103  A    between atoms: _249  and  _250
REMARK  104  A    between atoms: _250  and  _251
REMARK  105  A    between atoms: _260  and  _262
REMARK  106  A    between atoms: _262  and  _263
REMARK  107  A    between atoms: _262  and  _265
REMARK  108  A    between atoms: _265  and  _266
REMARK  109  A    between atoms: _269  and  _271
REMARK  110  A    between atoms: _271  and  _272
REMARK  111  A    between atoms: _271  and  _274
REMARK  112  A    between atoms: _274  and  _275
REMARK  113  A    between atoms: _278  and  _280
REMARK  114  A    between atoms: _280  and  _281
REMARK  115  A    between atoms: _280  and  _283
REMARK  116  A    between atoms: _283  and  _284
REMARK  117  A    between atoms: _287  and  _289
REMARK  118  A    between atoms: _289  and  _290
REMARK  119  A    between atoms: _289  and  _292
REMARK  120  A    between atoms: _292  and  _293
REMARK  121  A    between atoms: _296  and  _298
REMARK  122  A    between atoms: _298  and  _299
REMARK  123  A    between atoms: _301  and  _303
REMARK  124  A    between atoms: _303  and  _304
REMARK  125  A    between atoms: _307  and  _309
REMARK  126  A    between atoms: _309  and  _310
REMARK  127  A    between atoms: _309  and  _312
REMARK  128  A    between atoms: _312  and  _313
REMARK  129  A    between atoms: _316  and  _318
REMARK  130  A    between atoms: _318  and  _319
REMARK  131  A    between atoms: _318  and  _321
REMARK  132  A    between atoms: _321  and  _322
REMARK  133  A    between atoms: _325  and  _327
REMARK  134  A    between atoms: _327  and  _328
REMARK  135  A    between atoms: _327  and  _330
REMARK  136  A    between atoms: _330  and  _331
REMARK  137  A    between atoms: _334  and  _336
REMARK  138  A    between atoms: _336  and  _337
REMARK  139  A    between atoms: _336  and  _339
REMARK  140  A    between atoms: _339  and  _340
REMARK  141  A    between atoms: _343  and  _345
REMARK  142  A    between atoms: _345  and  _346
REMARK  143  A    between atoms: _345  and  _348
REMARK  144  A    between atoms: _348  and  _349
REMARK  145  A    between atoms: _352  and  _354
REMARK  146  A    between atoms: _354  and  _355
REMARK  147  A    between atoms: _354  and  _357
REMARK  148  A    between atoms: _357  and  _358
REMARK  149  A    between atoms: _358  and  _359
REMARK  150  A    between atoms: _359  and  _360
REMARK  151  A    between atoms: _360  and  _361
REMARK  152  A    between atoms: _365  and  _367
REMARK  153  A    between atoms: _367  and  _368
REMARK  154  A    between atoms: _367  and  _370
REMARK  155  A    between atoms: _370  and  _371
REMARK  156  A    between atoms: _371  and  _372
REMARK  157  A    between atoms: _374  and  _376
REMARK  158  A    between atoms: _376  and  _377
REMARK  159  A    between atoms: _376  and  _379
REMARK  160  A    between atoms: _379  and  _380
REMARK  161  A    between atoms: _383  and  _385
REMARK  162  A    between atoms: _385  and  _386
REMARK  163  A    between atoms: _388  and  _390
REMARK  164  A    between atoms: _390  and  _391
REMARK  165  A    between atoms: _393  and  _395
REMARK  166  A    between atoms: _395  and  _396
REMARK  167  A    between atoms: _395  and  _398
REMARK  168  A    between atoms: _398  and  _399
REMARK  169  A    between atoms: _402  and  _404
REMARK  170  A    between atoms: _404  and  _405
REMARK  171  A    between atoms: _407  and  _409
REMARK  172  A    between atoms: _409  and  _410
REMARK  173  A    between atoms: _412  and  _414
REMARK  174  A    between atoms: _414  and  _415
REMARK  175  A    between atoms: _414  and  _417
REMARK  176  A    between atoms: _417  and  _418
REMARK  177  A    between atoms: _424  and  _426
REMARK  178  A    between atoms: _426  and  _427
REMARK  179  A    between atoms: _426  and  _429
REMARK  180  A    between atoms: _429  and  _430
REMARK  181  A    between atoms: _433  and  _435
REMARK  182  A    between atoms: _435  and  _436
REMARK  183  A    between atoms: _435  and  _438
REMARK  184  A    between atoms: _441  and  _443
REMARK  185  A    between atoms: _443  and  _444
REMARK  186  A    between atoms: _443  and  _446
REMARK  187  A    between atoms: _446  and  _447
REMARK  188  A    between atoms: _450  and  _452
REMARK  189  A    between atoms: _452  and  _453
REMARK  190  A    between atoms: _452  and  _455
REMARK  191  A    between atoms: _455  and  _456
REMARK  192  A    between atoms: _460  and  _461
REMARK  193  A    between atoms: _466  and  _468
REMARK  194  A    between atoms: _468  and  _469
REMARK  195  A    between atoms: _468  and  _471
REMARK  196  A    between atoms: _474  and  _476
REMARK  197  A    between atoms: _476  and  _477
REMARK  198  A    between atoms: _476  and  _479
REMARK  199  A    between atoms: _479  and  _480
REMARK  200  A    between atoms: _485  and  _487
REMARK  201  A    between atoms: _487  and  _488
REMARK  202  A    between atoms: _487  and  _490
REMARK  203  A    between atoms: _490  and  _491
REMARK  204  A    between atoms: _494  and  _496
REMARK  205  A    between atoms: _496  and  _497
REMARK  206  A    between atoms: _496  and  _499
REMARK  207  A    between atoms: _499  and  _500
REMARK  208  A    between atoms: _503  and  _505
REMARK  209  A    between atoms: _505  and  _506
REMARK  210  A    between atoms: _508  and  _510
REMARK  211  A    between atoms: _510  and  _511
REMARK  212  A    between atoms: _510  and  _513
REMARK  213  A    between atoms: _513  and  _514
REMARK  214  A    between atoms: _514  and  _515
REMARK  215  A    between atoms: _515  and  _516
REMARK  216  A    between atoms: _525  and  _527
REMARK  217  A    between atoms: _527  and  _528
REMARK  218  A    between atoms: _527  and  _530
REMARK  219  A    between atoms: _530  and  _531
REMARK                            x       y       z     vdW  Elec       q    Type
REMARK                         _______ _______ _______ _____ _____    ______ ____
ROOT
ATOM      1  CA  LEU A   1      33.442  28.131  10.304  0.00  0.00    +0.133 C 
ENDROOT
BRANCH   1   2
ATOM      2  N   LEU A   1      33.676  27.194  11.386  0.00  0.00    -0.239 NA
ATOM      3  H   LEU A   1      32.899  26.999  12.049  0.00  0.00    +0.142 HD
ENDBRANCH   1   2
BRANCH   1   4
ATOM      4  C   LEU A   1      33.717  29.550  10.834  0.00  0.00    +0.224 C 
ATOM      5  O   LEU A   1      33.427  29.857  11.983  0.00  0.00    -0.287 OA
ENDBRANCH   1   4
BRANCH   1   6
ATOM      6  CB  LEU A   1      32.005  28.002   9.777  0.00  0.00    +0.025 C 
BRANCH   6   7
ATOM      7  CG  LEU A   1      31.445  26.597   9.538  0.00  0.00    +0.002 C 
ATOM      8  CD2 LEU A   1      29.974  26.637   9.047  0.00  0.00    +0.000 C 
ATOM      9  CD1 LEU A   1      32.316  25.828   8.537  0.00  0.00    +0.000 C 
ENDBRANCH   6   7
ENDBRANCH   1   6
TORSDOF 4
REMARK  Name = ../refined-set-2016/4q1x/4q1x_pocket.pdb
REMARK  219 active torsions:
REMARK  status: ('A' for Active; 'I' for Inactive)
REMARK    1  A    between atoms: _1  and  _3
REMARK    2  A    between atoms: _3  and  _4
REMARK    3  A    between atoms: _3  and  _6
REMARK    4  A    between atoms: _6  and  _7
REMARK    5  A    between atoms: _7  and  _8
REMARK    6  A    between atoms: _8  and  _9
REMARK    7  A    between atoms: _18  and  _20
REMARK    8  A    between atoms: _20  and  _21
REMARK    9  A    between atoms: _20  and  _23
REMARK   10  A    between atoms: _23  and  _24
REMARK   11  A    between atoms: _27  and  _29
REMARK   12  A    between atoms: _29  and  _30
REMARK   13  A    between atoms: _29  and  _32
REMARK   14  A    between atoms: _32  and  _33
REMARK   15  A    between atoms: _36  and  _38
REMARK   16  A    between atoms: _38  and  _39
REMARK   17  A    between atoms: _38  and  _41
REMARK   18  A    between atoms: _41  and  _42
REMARK   19  A    between atoms: _45  and  _47
REMARK   20  A    between atoms: _47  and  _48
REMARK   21  A    between atoms: _47  and  _50
REMARK   22  A    between atoms: _50  and  _51
REMARK   23  A    between atoms: _54  and  _56
REMARK   24  A    between atoms: _56  and  _57
REMARK   25  A    between atoms: _59  and  _61
REMARK   26  A    between atoms: _61  and  _62
REMARK   27  A    between atoms: _65  and  _67
REMARK   28  A    between atoms: _67  and  _68
REMARK   29  A    between atoms: _67  and  _70
REMARK   30  A    between atoms: _70  and  _71
REMARK   31  A    between atoms: _74  and  _76
REMARK   32  A    between atoms: _76  and  _77
REMARK   33  A    between atoms: _76  and  _79
REMARK   34  A    between atoms: _79  and  _80
REMARK   35  A    between atoms: _83  and  _85
REMARK   36  A    between atoms: _85  and  _86
REMARK   37  A    between atoms: _85  and  _88
REMARK   38  A    between atoms: _88  and  _89
REMARK   39  A    between atoms: _92  and  _94
REMARK   40  A    between atoms: _94  and  _95
REMARK   41  A    between atoms: _94  and  _97
REMARK   42  A    between atoms: _97  and  _98
REMARK   43  A    between atoms: _101  and  _103
REMARK   44  A    between atoms: _103  and  _104
REMARK   45  A    between atoms: _103  and  _106
REMARK   46  A    between atoms: _106  and  _107
REMARK   47  A    between atoms: _110  and  _112
REMARK   48  A    between atoms: _112  and  _113
REMARK   49  A    between atoms: _115  and  _117
REMARK   50  A    between atoms: _117  and  _118
REMARK   51  A    between atoms: _120  and  _122
REMARK   52  A    between atoms: _122  and  _123
REMARK   53  A    between atoms: _122  and  _125
REMARK   54  A    between atoms: _125  and  _126
REMARK   55  A    between atoms: _129  and  _131
REMARK   56  A    between atoms: _131  and  _132
REMARK   57  A    between atoms: _134  and  _136
REMARK   58  A    between atoms: _136  and  _137
REMARK   59  A    between atoms: _139  and  _141
REMARK   60  A    between atoms: _141  and  _142
REMARK   61  A    between atoms: _141  and  _144
REMARK   62  A    between atoms: _144  and  _145
REMARK   63  A    between atoms: _148  and  _150
REMARK   64  A    between atoms: _150  and  _151
REMARK   65  A    between atoms: _150  and  _153
REMARK   66  A    between atoms: _153  and  _154
REMARK   67  A    between atoms: _157  and  _159
REMARK   68  A    between atoms: _159  and  _160
REMARK   69  A    between atoms: _159  and  _162
REMARK   70  A    between atoms: _162  and  _163
REMARK   71  A    between atoms: _167  and  _168
REMARK   72  A    between atoms: _173  and  _175
REMARK   73  A    between atoms: _175  and  _176
REMARK   74  A    between atoms: _175  and  _178
REMARK   75  A    between atoms: _181  and  _183
REMARK   76  A    between atoms: _183  and  _184
REMARK   77  A    between atoms: _183  and  _186
REMARK   78  A    between atoms: _186  and  _187
REMARK   79  A    between atoms: _192  and  _194
REMARK   80  A    between atoms: _194  and  _195
REMARK   81  A    between atoms: _194  and  _197
REMARK   82  A    between atoms: _197  and  _198
REMARK   83  A    between atoms: _201  and  _203
REMARK   84  A    between atoms: _203  and  _204
REMARK   85  A    between atoms: _203  and  _206
REMARK   86  A    between atoms: _206  and  _207
REMARK   87  A    between atoms: _210  and  _212
REMARK   88  A    between atoms: _212  and  _213
REMARK   89  A    between atoms: _215  and  _217
REMARK   90  A    between atoms: _217  and  _218
REMARK   91  A    between atoms: _217  and  _220
REMARK   92  A    between atoms: _220  and  _221
REMARK   93  A    between atoms: _221  and  _222
REMARK   94  A    between atoms: _222  and  _223
REMARK   95  A    between atoms: _232  and  _234
REMARK   96  A    between atoms: _234  and  _235
REMARK   97  A    between atoms: _234  and  _237
REMARK   98  A    between atoms: _237  and  _238
REMARK   99  A    between atoms: _243  and  _245
REMARK  100  A    between atoms: _245  and  _246
REMARK  101  A    between atoms: _245  and  _248
REMARK  102  A    between atoms: _248  and  _249
REMARK  103  A    between atoms: _249  and  _250
REMARK  104  A    between atoms: _250  and  _251
REMARK  105  A    between atoms: _260  and  _262
REMARK  106  A    between atoms: _262  and  _263
REMARK  107  A    between atoms: _262  and  _265
REMARK  108  A    between atoms: _265  and  _266
REMARK  109  A    between atoms: _269  and  _271
REMARK  110  A    between atoms: _271  and  _272
REMARK  111  A    between atoms: _271  and  _274
REMARK  112  A    between atoms: _274  and  _275
REMARK  113  A    between atoms: _278  and  _280
REMARK  114  A    between atoms: _280  and  _281
REMARK  115  A    between atoms: _280  and  _283
REMARK  116  A    between atoms: _283  and  _284
REMARK  117  A    between atoms: _287  and  _289
REMARK  118  A    between atoms: _289  and  _290
REMARK  119  A    between atoms: _289  and  _292
REMARK  120  A    between atoms: _292  and  _293
REMARK  121  A    between atoms: _296  and  _298
REMARK  122  A    between atoms: _298  and  _299
REMARK  123  A    between atoms: _301  and  _303
REMARK  124  A    between atoms: _303  and  _304
REMARK  125  A    between atoms: _307  and  _309
REMARK  126  A    between atoms: _309  and  _310
REMARK  127  A    between atoms: _309  and  _312
REMARK  128  A    between atoms: _312  and  _313
REMARK  129  A    between atoms: _316  and  _318
REMARK  130  A    between atoms: _318  and  _319
REMARK  131  A    between atoms: _318  and  _321
REMARK  132  A    between atoms: _321  and  _322
REMARK  133  A    between atoms: _325  and  _327
REMARK  134  A    between atoms: _327  and  _328
REMARK  135  A    between atoms: _327  and  _330
REMARK  136  A    between atoms: _330  and  _331
REMARK  137  A    between atoms: _334  and  _336
REMARK  138  A    between atoms: _336  and  _337
REMARK  139  A    between atoms: _336  and  _339
REMARK  140  A    between atoms: _339  and  _340
REMARK  141  A    between atoms: _343  and  _345
REMARK  142  A    between atoms: _345  and  _346
REMARK  143  A    between atoms: _345  and  _348
REMARK  144  A    between atoms: _348  and  _349
REMARK  145  A    between atoms: _352  and  _354
REMARK  146  A    between atoms: _354  and  _355
REMARK  147  A    between atoms: _354  and  _357
REMARK  148  A    between atoms: _357  and  _358
REMARK  149  A    between atoms: _358  and  _359
REMARK  150  A    between atoms: _359  and  _360
REMARK  151  A    between atoms: _360  and  _361
REMARK  152  A    between atoms: _365  and  _367
REMARK  153  A    between atoms: _367  and  _368
REMARK  154  A    between atoms: _367  and  _370
REMARK  155  A    between atoms: _370  and  _371
REMARK  156  A    between atoms: _371  and  _372
REMARK  157  A    between atoms: _374  and  _376
REMARK  158  A    between atoms: _376  and  _377
REMARK  159  A    between atoms: _376  and  _379
REMARK  160  A    between atoms: _379  and  _380
REMARK  161  A    between atoms: _383  and  _385
REMARK  162  A    between atoms: _385  and  _386
REMARK  163  A    between atoms: _388  and  _390
REMARK  164  A    between atoms: _390  and  _391
REMARK  165  A    between atoms: _393  and  _395
REMARK  166  A    between atoms: _395  and  _396
REMARK  167  A    between atoms: _395  and  _398
REMARK  168  A    between atoms: _398  and  _399
REMARK  169  A    between atoms: _402  and  _404
REMARK  170  A    between atoms: _404  and  _405
REMARK  171  A    between atoms: _407  and  _409
REMARK  172  A    between atoms: _409  and  _410
REMARK  173  A    between atoms: _412  and  _414
REMARK  174  A    between atoms: _414  and  _415
REMARK  175  A    between atoms: _414  and  _417
REMARK  176  A    between atoms: _417  and  _418
REMARK  177  A    between atoms: _424  and  _426
REMARK  178  A    between atoms: _426  and  _427
REMARK  179  A    between atoms: _426  and  _429
REMARK  180  A    between atoms: _429  and  _430
REMARK  181  A    between atoms: _433  and  _435
REMARK  182  A    between atoms: _435  and  _436
REMARK  183  A    between atoms: _435  and  _438
REMARK  184  A    between atoms: _441  and  _443
REMARK  185  A    between atoms: _443  and  _444
REMARK  186  A    between atoms: _443  and  _446
REMARK  187  A    between atoms: _446  and  _447
REMARK  188  A    between atoms: _450  and  _452
REMARK  189  A    between atoms: _452  and  _453
REMARK  190  A    between atoms: _452  and  _455
REMARK  191  A    between atoms: _455  and  _456
REMARK  192  A    between atoms: _460  and  _461
REMARK  193  A    between atoms: _466  and  _468
REMARK  194  A    between atoms: _468  and  _469
REMARK  195  A    between atoms: _468  and  _471
REMARK  196  A    between atoms: _474  and  _476
REMARK  197  A    between atoms: _476  and  _477
REMARK  198  A    between atoms: _476  and  _479
REMARK  199  A    between atoms: _479  and  _480
REMARK  200  A    between atoms: _485  and  _487
REMARK  201  A    between atoms: _487  and  _488
REMARK  202  A    between atoms: _487  and  _490
REMARK  203  A    between atoms: _490  and  _491
REMARK  204  A    between atoms: _494  and  _496
REMARK  205  A    between atoms: _496  and  _497
REMARK  206  A    between atoms: _496  and  _499
REMARK  207  A    between atoms: _499  and  _500
REMARK  208  A    between atoms: _503  and  _505
REMARK  209  A    between atoms: _505  and  _506
REMARK  210  A    between atoms: _508  and  _510
REMARK  211  A    between atoms: _510  and  _511
REMARK  212  A    between atoms: _510  and  _513
REMARK  213  A    between atoms: _513  and  _514
REMARK  214  A    between atoms: _514  and  _515
REMARK  215  A    between atoms: _515  and  _516
REMARK  216  A    between atoms: _525  and  _527
REMARK  217  A    between atoms: _527  and  _528
REMARK  218  A    between atoms: _527  and  _530
REMARK  219  A    between atoms: _530  and  _531
REMARK                            x       y       z     vdW  Elec       q    Type
REMARK                         _______ _______ _______ _____ _____    ______ ____
ROOT
ATOM      1  C   ILE A   5      28.658  28.881  18.119  0.00  0.00    +0.241 C 
ATOM      2  N   ILE A   6      28.402  28.126  19.185  0.00  0.00    -0.297 N 
ATOM      3  H   ILE A   6      27.866  28.540  19.975  0.00  0.00    +0.150 HD
ATOM      4  O   ILE A   5      29.397  28.517  17.198  0.00  0.00    -0.273 OA
ENDROOT
BRANCH   2   5
ATOM      5  CA  ILE A   6      28.844  26.743  19.286  0.00  0.00    +0.149 C 
BRANCH   5   6
ATOM      6  C   ILE A   6      27.687  25.847  18.883  0.00  0.00    +0.241 C 
ATOM      7  O   ILE A   6      26.667  25.783  19.574  0.00  0.00    -0.273 OA
ATOM      8  N   GLY A   7      27.861  25.136  17.769  0.00  0.00    -0.295 N 
ATOM      9  H   GLY A   7      28.761  25.211  17.254  0.00  0.00    +0.150 HD
BRANCH   8  10
ATOM     10  CA  GLY A   7      26.818  24.256  17.257  0.00  0.00    +0.176 C 
BRANCH  10  11
ATOM     11  C   GLY A   7      26.971  22.805  17.625  0.00  0.00    +0.243 C 
ATOM     12  O   GLY A   7      27.905  22.427  18.322  0.00  0.00    -0.273 OA
ATOM     13  N   ARG A   8      26.054  21.985  17.119  0.00  0.00    -0.297 N 
ATOM     14  H   ARG A   8      25.380  22.347  16.414  0.00  0.00    +0.150 HD
BRANCH  13  15
ATOM     15  CA  ARG A   8      25.974  20.599  17.529  0.00  0.00    +0.149 C 
BRANCH  15  16
ATOM     16  C   ARG A   8      27.241  19.808  17.202  0.00  0.00    +0.241 C 
ATOM     17  O   ARG A   8      27.539  18.849  17.901  0.00  0.00    -0.273 OA
ATOM     18  N   ASN A   9      27.998  20.179  16.172  0.00  0.00    -0.298 N 
ATOM     19  H   ASN A   9      27.732  20.998  15.589  0.00  0.00    +0.150 HD
BRANCH  18  20
ATOM     20  CA  ASN A   9      29.214  19.414  15.871  0.00  0.00    +0.146 C 
BRANCH  20  21
ATOM     21  C   ASN A   9      30.190  19.373  17.053  0.00  0.00    +0.227 C 
ATOM     22  O   ASN A   9      30.860  18.367  17.286  0.00  0.00    -0.286 OA
ENDBRANCH  20  21
BRANCH  20  23
ATOM     23  CB  ASN A   9      29.894  19.943  14.595  0.00  0.00    +0.112 C 
BRANCH  23  24
ATOM     24  CG  ASN A   9      30.510  21.322  14.776  0.00  0.00    +0.222 C 
ATOM     25  OD1 ASN A   9      29.829  22.264  15.193  0.00  0.00    -0.275 OA
ATOM     26  ND2 ASN A   9      31.813  21.442  14.490  0.00  0.00    -0.329 N 
ATOM     27 HD21 ASN A   9      32.291  22.357  14.617  0.00  0.00    +0.145 HD
ATOM     28 HD22 ASN A   9      32.347  20.620  14.141  0.00  0.00    +0.145 HD
ENDBRANCH  23  24
ENDBRANCH  20  23
ENDBRANCH  18  20
ENDBRANCH  15  16
BRANCH  15  29
ATOM     29  CB  ARG A   8      24.744  19.913  16.917  0.00  0.00    +0.033 C 
BRANCH  29  30
ATOM     30  CG  ARG A   8      23.395  20.486  17.424  0.00  0.00    +0.045 C 
BRANCH  30  31
ATOM     31  CD  ARG A   8      22.186  19.666  16.953  0.00  0.00    +0.174 C 
BRANCH  31  32
ATOM     32  NE  ARG A   8      22.108  19.640  15.491  0.00  0.00    -0.265 N 
ATOM     33  HE  ARG A   8      21.644  20.447  15.027  0.00  0.00    +0.259 HD
ATOM     34  CZ  ARG A   8      22.578  18.675  14.701  0.00  0.00    +0.342 C 
ATOM     35  NH2 ARG A   8      23.184  17.588  15.165  0.00  0.00    -0.292 N 
ATOM     36 HH21 ARG A   8      23.310  17.460  16.189  0.00  0.00    +0.255 HD
ATOM     37 HH22 ARG A   8      23.532  16.865  14.504  0.00  0.00    +0.255 HD
ATOM     38  NH1 ARG A   8      22.458  18.812  13.400  0.00  0.00    -0.292 N 
ATOM     39 HH11 ARG A   8      22.004  19.661  13.006  0.00  0.00    +0.255 HD
ATOM     40 HH12 ARG A   8      22.817  18.072  12.764  0.00  0.00    +0.255 HD
ENDBRANCH  31  32
ENDBRANCH  30  31
ENDBRANCH  29  30
ENDBRANCH  15  29
ENDBRANCH  13  15
ENDBRANCH  10  11
ENDBRANCH   8  10
ENDBRANCH   5   6
BRANCH   5  41
ATOM     41  CB  ILE A   6      29.292  26.364  20.717  0.00  0.00    +0.027 C 
ATOM     42  CG2 ILE A   6      29.859  24.961  20.725  0.00  0.00    +0.002 C 
BRANCH  41  43
ATOM     43  CG1 ILE A   6      30.358  27.332  21.241  0.00  0.00    +0.002 C 
ATOM     44  CD1 ILE A   6      31.534  27.523  20.280  0.00  0.00    +0.000 C 
ENDBRANCH  41  43
ENDBRANCH   5  41
ENDBRANCH   2   5
BRANCH   1  45
ATOM     45  CA  ILE A   5      27.966  30.250  18.095  0.00  0.00    +0.149 C 
BRANCH  45  48
ATOM     46  C   ASN A   4      29.030  32.375  18.558  0.00  0.00    +0.241 C 
ATOM     47  O   ASN A   4      28.423  32.475  19.624  0.00  0.00    -0.273 OA
ATOM     48  N   ILE A   5      28.860  31.340  17.739  0.00  0.00    -0.297 N 
ATOM     49  H   ILE A   5      29.372  31.310  16.834  0.00  0.00    +0.150 HD
BRANCH  46  50
ATOM     50  CA  ASN A   4      30.019  33.458  18.136  0.00  0.00    +0.158 C 
BRANCH  50  52
ATOM     51  C   VAL A   3      28.277  34.992  17.460  0.00  0.00    +0.241 C 
ATOM     52  N   ASN A   4      29.374  34.768  18.179  0.00  0.00    -0.297 N 
ATOM     53  H   ASN A   4      29.772  35.525  18.771  0.00  0.00    +0.150 HD
ATOM     54  O   VAL A   3      27.818  34.162  16.669  0.00  0.00    -0.273 OA
BRANCH  51  55
ATOM     55  CA  VAL A   3      27.552  36.317  17.655  0.00  0.00    +0.149 C 
BRANCH  55  58
ATOM     56  C   PRO A   2      26.504  37.897  16.097  0.00  0.00    +0.241 C 
ATOM     57  O   PRO A   2      26.673  38.855  16.857  0.00  0.00    -0.273 OA
ATOM     58  N   VAL A   3      26.876  36.658  16.399  0.00  0.00    -0.297 N 
ATOM     59  H   VAL A   3      26.680  35.898  15.716  0.00  0.00    +0.150 HD
BRANCH  56  62
ATOM     60  C   THR A   1      27.293  36.878  13.298  0.00  0.00    +0.244 C 
ATOM     61  N   PRO A   2      26.040  37.089  13.736  0.00  0.00    -0.272 N 
ATOM     62  CA  PRO A   2      25.817  38.114  14.751  0.00  0.00    +0.152 C 
ATOM     63  CB  PRO A   2      24.297  38.096  14.943  0.00  0.00    +0.031 C 
ATOM     64  CG  PRO A   2      23.879  36.742  14.509  0.00  0.00    +0.024 C 
ATOM     65  CD  PRO A   2      24.775  36.442  13.348  0.00  0.00    +0.094 C 
ATOM     66  O   THR A   1      28.230  37.595  13.643  0.00  0.00    -0.273 OA
BRANCH  60  67
ATOM     67  CA  THR A   1      27.541  35.739  12.320  0.00  0.00    +0.172 C 
BRANCH  67  68
ATOM     68  CB  THR A   1      27.970  34.416  13.015  0.00  0.00    +0.135 C 
ATOM     69  CG2 THR A   1      29.354  34.549  13.614  0.00  0.00    +0.034 C 
BRANCH  68  70
ATOM     70  OG1 THR A   1      27.024  34.067  14.031  0.00  0.00    -0.383 OA
ATOM     71  HG1 THR A   1      26.983  34.791  14.705  0.00  0.00    +0.210 HD
ENDBRANCH  68  70
ENDBRANCH  67  68
BRANCH  67  72
ATOM     72  N   THR A   1      28.620  36.213  11.465  0.00  0.00    -0.236 NA
ATOM     73  H   THR A   1      29.585  36.263  11.849  0.00  0.00    +0.142 HD
ENDBRANCH  67  72
ENDBRANCH  60  67
ENDBRANCH  56  62
ENDBRANCH  55  58
BRANCH  55  74
ATOM     74  CB  VAL A   3      26.557  36.138  18.812  0.00  0.00    +0.027 C 
ATOM     75  CG2 VAL A   3      27.294  35.952  20.138  0.00  0.00    +0.002 C 
ATOM     76  CG1 VAL A   3      25.636  34.947  18.550  0.00  0.00    +0.002 C 
ENDBRANCH  55  74
ENDBRANCH  51  55
ENDBRANCH  50  52
BRANCH  50  77
ATOM     77  CB  ASN A   4      31.219  33.374  19.067  0.00  0.00    +0.114 C 
BRANCH  77  78
ATOM     78  CG  ASN A   4      32.344  34.322  18.684  0.00  0.00    +0.222 C 
ATOM     79  ND2 ASN A   4      32.889  34.994  19.690  0.00  0.00    -0.329 N 
ATOM     80 HD21 ASN A   4      32.532  34.862  20.658  0.00  0.00    +0.145 HD
ATOM     81 HD22 ASN A   4      33.674  35.653  19.511  0.00  0.00    +0.145 HD
ATOM     82  OD1 ASN A   4      32.730  34.441  17.515  0.00  0.00    -0.275 OA
ENDBRANCH  77  78
ENDBRANCH  50  77
ENDBRANCH  46  50
ENDBRANCH  45  48
BRANCH  45  83
ATOM     83  CB  ILE A   5      26.716  30.197  17.175  0.00  0.00    +0.027 C 
ATOM     84  CG2 ILE A   5      25.932  31.499  17.250  0.00  0.00    +0.002 C 
BRANCH  83  85
ATOM     85  CG1 ILE A   5      27.074  29.901  15.715  0.00  0.00    +0.002 C 
ATOM     86  CD1 ILE A   5      25.865  29.844  14.757  0.00  0.00    +0.000 C 
ENDBRANCH  83  85
ENDBRANCH  45  83
ENDBRANCH   1  45
TORSDOF 32
REMARK  Name = ../refined-set-2016/4q1x/4q1x_pocket.pdb
REMARK  219 active torsions:
REMARK  status: ('A' for Active; 'I' for Inactive)
REMARK    1  A    between atoms: _1  and  _3
REMARK    2  A    between atoms: _3  and  _4
REMARK    3  A    between atoms: _3  and  _6
REMARK    4  A    between atoms: _6  and  _7
REMARK    5  A    between atoms: _7  and  _8
REMARK    6  A    between atoms: _8  and  _9
REMARK    7  A    between atoms: _18  and  _20
REMARK    8  A    between atoms: _20  and  _21
REMARK    9  A    between atoms: _20  and  _23
REMARK   10  A    between atoms: _23  and  _24
REMARK   11  A    between atoms: _27  and  _29
REMARK   12  A    between atoms: _29  and  _30
REMARK   13  A    between atoms: _29  and  _32
REMARK   14  A    between atoms: _32  and  _33
REMARK   15  A    between atoms: _36  and  _38
REMARK   16  A    between atoms: _38  and  _39
REMARK   17  A    between atoms: _38  and  _41
REMARK   18  A    between atoms: _41  and  _42
REMARK   19  A    between atoms: _45  and  _47
REMARK   20  A    between atoms: _47  and  _48
REMARK   21  A    between atoms: _47  and  _50
REMARK   22  A    between atoms: _50  and  _51
REMARK   23  A    between atoms: _54  and  _56
REMARK   24  A    between atoms: _56  and  _57
REMARK   25  A    between atoms: _59  and  _61
REMARK   26  A    between atoms: _61  and  _62
REMARK   27  A    between atoms: _65  and  _67
REMARK   28  A    between atoms: _67  and  _68
REMARK   29  A    between atoms: _67  and  _70
REMARK   30  A    between atoms: _70  and  _71
REMARK   31  A    between atoms: _74  and  _76
REMARK   32  A    between atoms: _76  and  _77
REMARK   33  A    between atoms: _76  and  _79
REMARK   34  A    between atoms: _79  and  _80
REMARK   35  A    between atoms: _83  and  _85
REMARK   36  A    between atoms: _85  and  _86
REMARK   37  A    between atoms: _85  and  _88
REMARK   38  A    between atoms: _88  and  _89
REMARK   39  A    between atoms: _92  and  _94
REMARK   40  A    between atoms: _94  and  _95
REMARK   41  A    between atoms: _94  and  _97
REMARK   42  A    between atoms: _97  and  _98
REMARK   43  A    between atoms: _101  and  _103
REMARK   44  A    between atoms: _103  and  _104
REMARK   45  A    between atoms: _103  and  _106
REMARK   46  A    between atoms: _106  and  _107
REMARK   47  A    between atoms: _110  and  _112
REMARK   48  A    between atoms: _112  and  _113
REMARK   49  A    between atoms: _115  and  _117
REMARK   50  A    between atoms: _117  and  _118
REMARK   51  A    between atoms: _120  and  _122
REMARK   52  A    between atoms: _122  and  _123
REMARK   53  A    between atoms: _122  and  _125
REMARK   54  A    between atoms: _125  and  _126
REMARK   55  A    between atoms: _129  and  _131
REMARK   56  A    between atoms: _131  and  _132
REMARK   57  A    between atoms: _134  and  _136
REMARK   58  A    between atoms: _136  and  _137
REMARK   59  A    between atoms: _139  and  _141
REMARK   60  A    between atoms: _141  and  _142
REMARK   61  A    between atoms: _141  and  _144
REMARK   62  A    between atoms: _144  and  _145
REMARK   63  A    between atoms: _148  and  _150
REMARK   64  A    between atoms: _150  and  _151
REMARK   65  A    between atoms: _150  and  _153
REMARK   66  A    between atoms: _153  and  _154
REMARK   67  A    between atoms: _157  and  _159
REMARK   68  A    between atoms: _159  and  _160
REMARK   69  A    between atoms: _159  and  _162
REMARK   70  A    between atoms: _162  and  _163
REMARK   71  A    between atoms: _167  and  _168
REMARK   72  A    between atoms: _173  and  _175
REMARK   73  A    between atoms: _175  and  _176
REMARK   74  A    between atoms: _175  and  _178
REMARK   75  A    between atoms: _181  and  _183
REMARK   76  A    between atoms: _183  and  _184
REMARK   77  A    between atoms: _183  and  _186
REMARK   78  A    between atoms: _186  and  _187
REMARK   79  A    between atoms: _192  and  _194
REMARK   80  A    between atoms: _194  and  _195
REMARK   81  A    between atoms: _194  and  _197
REMARK   82  A    between atoms: _197  and  _198
REMARK   83  A    between atoms: _201  and  _203
REMARK   84  A    between atoms: _203  and  _204
REMARK   85  A    between atoms: _203  and  _206
REMARK   86  A    between atoms: _206  and  _207
REMARK   87  A    between atoms: _210  and  _212
REMARK   88  A    between atoms: _212  and  _213
REMARK   89  A    between atoms: _215  and  _217
REMARK   90  A    between atoms: _217  and  _218
REMARK   91  A    between atoms: _217  and  _220
REMARK   92  A    between atoms: _220  and  _221
REMARK   93  A    between atoms: _221  and  _222
REMARK   94  A    between atoms: _222  and  _223
REMARK   95  A    between atoms: _232  and  _234
REMARK   96  A    between atoms: _234  and  _235
REMARK   97  A    between atoms: _234  and  _237
REMARK   98  A    between atoms: _237  and  _238
REMARK   99  A    between atoms: _243  and  _245
REMARK  100  A    between atoms: _245  and  _246
REMARK  101  A    between atoms: _245  and  _248
REMARK  102  A    between atoms: _248  and  _249
REMARK  103  A    between atoms: _249  and  _250
REMARK  104  A    between atoms: _250  and  _251
REMARK  105  A    between atoms: _260  and  _262
REMARK  106  A    between atoms: _262  and  _263
REMARK  107  A    between atoms: _262  and  _265
REMARK  108  A    between atoms: _265  and  _266
REMARK  109  A    between atoms: _269  and  _271
REMARK  110  A    between atoms: _271  and  _272
REMARK  111  A    between atoms: _271  and  _274
REMARK  112  A    between atoms: _274  and  _275
REMARK  113  A    between atoms: _278  and  _280
REMARK  114  A    between atoms: _280  and  _281
REMARK  115  A    between atoms: _280  and  _283
REMARK  116  A    between atoms: _283  and  _284
REMARK  117  A    between atoms: _287  and  _289
REMARK  118  A    between atoms: _289  and  _290
REMARK  119  A    between atoms: _289  and  _292
REMARK  120  A    between atoms: _292  and  _293
REMARK  121  A    between atoms: _296  and  _298
REMARK  122  A    between atoms: _298  and  _299
REMARK  123  A    between atoms: _301  and  _303
REMARK  124  A    between atoms: _303  and  _304
REMARK  125  A    between atoms: _307  and  _309
REMARK  126  A    between atoms: _309  and  _310
REMARK  127  A    between atoms: _309  and  _312
REMARK  128  A    between atoms: _312  and  _313
REMARK  129  A    between atoms: _316  and  _318
REMARK  130  A    between atoms: _318  and  _319
REMARK  131  A    between atoms: _318  and  _321
REMARK  132  A    between atoms: _321  and  _322
REMARK  133  A    between atoms: _325  and  _327
REMARK  134  A    between atoms: _327  and  _328
REMARK  135  A    between atoms: _327  and  _330
REMARK  136  A    between atoms: _330  and  _331
REMARK  137  A    between atoms: _334  and  _336
REMARK  138  A    between atoms: _336  and  _337
REMARK  139  A    between atoms: _336  and  _339
REMARK  140  A    between atoms: _339  and  _340
REMARK  141  A    between atoms: _343  and  _345
REMARK  142  A    between atoms: _345  and  _346
REMARK  143  A    between atoms: _345  and  _348
REMARK  144  A    between atoms: _348  and  _349
REMARK  145  A    between atoms: _352  and  _354
REMARK  146  A    between atoms: _354  and  _355
REMARK  147  A    between atoms: _354  and  _357
REMARK  148  A    between atoms: _357  and  _358
REMARK  149  A    between atoms: _358  and  _359
REMARK  150  A    between atoms: _359  and  _360
REMARK  151  A    between atoms: _360  and  _361
REMARK  152  A    between atoms: _365  and  _367
REMARK  153  A    between atoms: _367  and  _368
REMARK  154  A    between atoms: _367  and  _370
REMARK  155  A    between atoms: _370  and  _371
REMARK  156  A    between atoms: _371  and  _372
REMARK  157  A    between atoms: _374  and  _376
REMARK  158  A    between atoms: _376  and  _377
REMARK  159  A    between atoms: _376  and  _379
REMARK  160  A    between atoms: _379  and  _380
REMARK  161  A    between atoms: _383  and  _385
REMARK  162  A    between atoms: _385  and  _386
REMARK  163  A    between atoms: _388  and  _390
REMARK  164  A    between atoms: _390  and  _391
REMARK  165  A    between atoms: _393  and  _395
REMARK  166  A    between atoms: _395  and  _396
REMARK  167  A    between atoms: _395  and  _398
REMARK  168  A    between atoms: _398  and  _399
REMARK  169  A    between atoms: _402  and  _404
REMARK  170  A    between atoms: _404  and  _405
REMARK  171  A    between atoms: _407  and  _409
REMARK  172  A    between atoms: _409  and  _410
REMARK  173  A    between atoms: _412  and  _414
REMARK  174  A    between atoms: _414  and  _415
REMARK  175  A    between atoms: _414  and  _417
REMARK  176  A    between atoms: _417  and  _418
REMARK  177  A    between atoms: _424  and  _426
REMARK  178  A    between atoms: _426  and  _427
REMARK  179  A    between atoms: _426  and  _429
REMARK  180  A    between atoms: _429  and  _430
REMARK  181  A    between atoms: _433  and  _435
REMARK  182  A    between atoms: _435  and  _436
REMARK  183  A    between atoms: _435  and  _438
REMARK  184  A    between atoms: _441  and  _443
REMARK  185  A    between atoms: _443  and  _444
REMARK  186  A    between atoms: _443  and  _446
REMARK  187  A    between atoms: _446  and  _447
REMARK  188  A    between atoms: _450  and  _452
REMARK  189  A    between atoms: _452  and  _453
REMARK  190  A    between atoms: _452  and  _455
REMARK  191  A    between atoms: _455  and  _456
REMARK  192  A    between atoms: _460  and  _461
REMARK  193  A    between atoms: _466  and  _468
REMARK  194  A    between atoms: _468  and  _469
REMARK  195  A    between atoms: _468  and  _471
REMARK  196  A    between atoms: _474  and  _476
REMARK  197  A    between atoms: _476  and  _477
REMARK  198  A    between atoms: _476  and  _479
REMARK  199  A    between atoms: _479  and  _480
REMARK  200  A    between atoms: _485  and  _487
REMARK  201  A    between atoms: _487  and  _488
REMARK  202  A    between atoms: _487  and  _490
REMARK  203  A    between atoms: _490  and  _491
REMARK  204  A    between atoms: _494  and  _496
REMARK  205  A    between atoms: _496  and  _497
REMARK  206  A    between atoms: _496  and  _499
REMARK  207  A    between atoms: _499  and  _500
REMARK  208  A    between atoms: _503  and  _505
REMARK  209  A    between atoms: _505  and  _506
REMARK  210  A    between atoms: _508  and  _510
REMARK  211  A    between atoms: _510  and  _511
REMARK  212  A    between atoms: _510  and  _513
REMARK  213  A    between atoms: _513  and  _514
REMARK  214  A    between atoms: _514  and  _515
REMARK  215  A    between atoms: _515  and  _516
REMARK  216  A    between atoms: _525  and  _527
REMARK  217  A    between atoms: _527  and  _528
REMARK  218  A    between atoms: _527  and  _530
REMARK  219  A    between atoms: _530  and  _531
REMARK                            x       y       z     vdW  Elec       q    Type
REMARK                         _______ _______ _______ _____ _____    ______ ____
ROOT
ATOM      1  NE  ARG A   1      19.062  20.743  10.978  0.00  0.00    -0.265 N 
ATOM      2  HE  ARG A   1      20.000  20.312  10.853  0.00  0.00    +0.259 HD
ATOM      3  CZ  ARG A   1      18.767  21.822  10.247  0.00  0.00    +0.342 C 
ATOM      4  NH2 ARG A   1      17.600  22.456  10.404  0.00  0.00    -0.292 N 
ATOM      5 HH21 ARG A   1      16.910  22.110  11.101  0.00  0.00    +0.255 HD
ATOM      6 HH22 ARG A   1      17.382  23.295   9.829  0.00  0.00    +0.255 HD
ATOM      7  NH1 ARG A   1      19.656  22.304   9.388  0.00  0.00    -0.292 N 
ATOM      8 HH11 ARG A   1      20.582  21.842   9.284  0.00  0.00    +0.255 HD
ATOM      9 HH12 ARG A   1      19.427  23.144   8.819  0.00  0.00    +0.255 HD
ENDROOT
BRANCH   1  10
ATOM     10  CD  ARG A   1      18.150  20.128  11.944  0.00  0.00    +0.174 C 
BRANCH  10  11
ATOM     11  CG  ARG A   1      18.890  19.363  13.020  0.00  0.00    +0.045 C 
BRANCH  11  12
ATOM     12  CB  ARG A   1      17.932  18.770  14.025  0.00  0.00    +0.029 C 
BRANCH  12  13
ATOM     13  CA  ARG A   1      18.635  18.191  15.251  0.00  0.00    +0.133 C 
BRANCH  13  14
ATOM     14  N   ARG A   1      19.398  17.009  14.890  0.00  0.00    -0.239 NA
ATOM     15  H   ARG A   1      19.433  16.719  13.892  0.00  0.00    +0.142 HD
ENDBRANCH  13  14
BRANCH  13  16
ATOM     16  C   ARG A   1      17.614  17.824  16.324  0.00  0.00    +0.224 C 
ATOM     17  O   ARG A   1      16.959  16.797  16.215  0.00  0.00    -0.287 OA
ENDBRANCH  13  16
ENDBRANCH  12  13
ENDBRANCH  11  12
ENDBRANCH  10  11
ENDBRANCH   1  10
TORSDOF 6
REMARK  Name = ../refined-set-2016/4q1x/4q1x_pocket.pdb
REMARK  219 active torsions:
REMARK  status: ('A' for Active; 'I' for Inactive)
REMARK    1  A    between atoms: _1  and  _3
REMARK    2  A    between atoms: _3  and  _4
REMARK    3  A    between atoms: _3  and  _6
REMARK    4  A    between atoms: _6  and  _7
REMARK    5  A    between atoms: _7  and  _8
REMARK    6  A    between atoms: _8  and  _9
REMARK    7  A    between atoms: _18  and  _20
REMARK    8  A    between atoms: _20  and  _21
REMARK    9  A    between atoms: _20  and  _23
REMARK   10  A    between atoms: _23  and  _24
REMARK   11  A    between atoms: _27  and  _29
REMARK   12  A    between atoms: _29  and  _30
REMARK   13  A    between atoms: _29  and  _32
REMARK   14  A    between atoms: _32  and  _33
REMARK   15  A    between atoms: _36  and  _38
REMARK   16  A    between atoms: _38  and  _39
REMARK   17  A    between atoms: _38  and  _41
REMARK   18  A    between atoms: _41  and  _42
REMARK   19  A    between atoms: _45  and  _47
REMARK   20  A    between atoms: _47  and  _48
REMARK   21  A    between atoms: _47  and  _50
REMARK   22  A    between atoms: _50  and  _51
REMARK   23  A    between atoms: _54  and  _56
REMARK   24  A    between atoms: _56  and  _57
REMARK   25  A    between atoms: _59  and  _61
REMARK   26  A    between atoms: _61  and  _62
REMARK   27  A    between atoms: _65  and  _67
REMARK   28  A    between atoms: _67  and  _68
REMARK   29  A    between atoms: _67  and  _70
REMARK   30  A    between atoms: _70  and  _71
REMARK   31  A    between atoms: _74  and  _76
REMARK   32  A    between atoms: _76  and  _77
REMARK   33  A    between atoms: _76  and  _79
REMARK   34  A    between atoms: _79  and  _80
REMARK   35  A    between atoms: _83  and  _85
REMARK   36  A    between atoms: _85  and  _86
REMARK   37  A    between atoms: _85  and  _88
REMARK   38  A    between atoms: _88  and  _89
REMARK   39  A    between atoms: _92  and  _94
REMARK   40  A    between atoms: _94  and  _95
REMARK   41  A    between atoms: _94  and  _97
REMARK   42  A    between atoms: _97  and  _98
REMARK   43  A    between atoms: _101  and  _103
REMARK   44  A    between atoms: _103  and  _104
REMARK   45  A    between atoms: _103  and  _106
REMARK   46  A    between atoms: _106  and  _107
REMARK   47  A    between atoms: _110  and  _112
REMARK   48  A    between atoms: _112  and  _113
REMARK   49  A    between atoms: _115  and  _117
REMARK   50  A    between atoms: _117  and  _118
REMARK   51  A    between atoms: _120  and  _122
REMARK   52  A    between atoms: _122  and  _123
REMARK   53  A    between atoms: _122  and  _125
REMARK   54  A    between atoms: _125  and  _126
REMARK   55  A    between atoms: _129  and  _131
REMARK   56  A    between atoms: _131  and  _132
REMARK   57  A    between atoms: _134  and  _136
REMARK   58  A    between atoms: _136  and  _137
REMARK   59  A    between atoms: _139  and  _141
REMARK   60  A    between atoms: _141  and  _142
REMARK   61  A    between atoms: _141  and  _144
REMARK   62  A    between atoms: _144  and  _145
REMARK   63  A    between atoms: _148  and  _150
REMARK   64  A    between atoms: _150  and  _151
REMARK   65  A    between atoms: _150  and  _153
REMARK   66  A    between atoms: _153  and  _154
REMARK   67  A    between atoms: _157  and  _159
REMARK   68  A    between atoms: _159  and  _160
REMARK   69  A    between atoms: _159  and  _162
REMARK   70  A    between atoms: _162  and  _163
REMARK   71  A    between atoms: _167  and  _168
REMARK   72  A    between atoms: _173  and  _175
REMARK   73  A    between atoms: _175  and  _176
REMARK   74  A    between atoms: _175  and  _178
REMARK   75  A    between atoms: _181  and  _183
REMARK   76  A    between atoms: _183  and  _184
REMARK   77  A    between atoms: _183  and  _186
REMARK   78  A    between atoms: _186  and  _187
REMARK   79  A    between atoms: _192  and  _194
REMARK   80  A    between atoms: _194  and  _195
REMARK   81  A    between atoms: _194  and  _197
REMARK   82  A    between atoms: _197  and  _198
REMARK   83  A    between atoms: _201  and  _203
REMARK   84  A    between atoms: _203  and  _204
REMARK   85  A    between atoms: _203  and  _206
REMARK   86  A    between atoms: _206  and  _207
REMARK   87  A    between atoms: _210  and  _212
REMARK   88  A    between atoms: _212  and  _213
REMARK   89  A    between atoms: _215  and  _217
REMARK   90  A    between atoms: _217  and  _218
REMARK   91  A    between atoms: _217  and  _220
REMARK   92  A    between atoms: _220  and  _221
REMARK   93  A    between atoms: _221  and  _222
REMARK   94  A    between atoms: _222  and  _223
REMARK   95  A    between atoms: _232  and  _234
REMARK   96  A    between atoms: _234  and  _235
REMARK   97  A    between atoms: _234  and  _237
REMARK   98  A    between atoms: _237  and  _238
REMARK   99  A    between atoms: _243  and  _245
REMARK  100  A    between atoms: _245  and  _246
REMARK  101  A    between atoms: _245  and  _248
REMARK  102  A    between atoms: _248  and  _249
REMARK  103  A    between atoms: _249  and  _250
REMARK  104  A    between atoms: _250  and  _251
REMARK  105  A    between atoms: _260  and  _262
REMARK  106  A    between atoms: _262  and  _263
REMARK  107  A    between atoms: _262  and  _265
REMARK  108  A    between atoms: _265  and  _266
REMARK  109  A    between atoms: _269  and  _271
REMARK  110  A    between atoms: _271  and  _272
REMARK  111  A    between atoms: _271  and  _274
REMARK  112  A    between atoms: _274  and  _275
REMARK  113  A    between atoms: _278  and  _280
REMARK  114  A    between atoms: _280  and  _281
REMARK  115  A    between atoms: _280  and  _283
REMARK  116  A    between atoms: _283  and  _284
REMARK  117  A    between atoms: _287  and  _289
REMARK  118  A    between atoms: _289  and  _290
REMARK  119  A    between atoms: _289  and  _292
REMARK  120  A    between atoms: _292  and  _293
REMARK  121  A    between atoms: _296  and  _298
REMARK  122  A    between atoms: _298  and  _299
REMARK  123  A    between atoms: _301  and  _303
REMARK  124  A    between atoms: _303  and  _304
REMARK  125  A    between atoms: _307  and  _309
REMARK  126  A    between atoms: _309  and  _310
REMARK  127  A    between atoms: _309  and  _312
REMARK  128  A    between atoms: _312  and  _313
REMARK  129  A    between atoms: _316  and  _318
REMARK  130  A    between atoms: _318  and  _319
REMARK  131  A    between atoms: _318  and  _321
REMARK  132  A    between atoms: _321  and  _322
REMARK  133  A    between atoms: _325  and  _327
REMARK  134  A    between atoms: _327  and  _328
REMARK  135  A    between atoms: _327  and  _330
REMARK  136  A    between atoms: _330  and  _331
REMARK  137  A    between atoms: _334  and  _336
REMARK  138  A    between atoms: _336  and  _337
REMARK  139  A    between atoms: _336  and  _339
REMARK  140  A    between atoms: _339  and  _340
REMARK  141  A    between atoms: _343  and  _345
REMARK  142  A    between atoms: _345  and  _346
REMARK  143  A    between atoms: _345  and  _348
REMARK  144  A    between atoms: _348  and  _349
REMARK  145  A    between atoms: _352  and  _354
REMARK  146  A    between atoms: _354  and  _355
REMARK  147  A    between atoms: _354  and  _357
REMARK  148  A    between atoms: _357  and  _358
REMARK  149  A    between atoms: _358  and  _359
REMARK  150  A    between atoms: _359  and  _360
REMARK  151  A    between atoms: _360  and  _361
REMARK  152  A    between atoms: _365  and  _367
REMARK  153  A    between atoms: _367  and  _368
REMARK  154  A    between atoms: _367  and  _370
REMARK  155  A    between atoms: _370  and  _371
REMARK  156  A    between atoms: _371  and  _372
REMARK  157  A    between atoms: _374  and  _376
REMARK  158  A    between atoms: _376  and  _377
REMARK  159  A    between atoms: _376  and  _379
REMARK  160  A    between atoms: _379  and  _380
REMARK  161  A    between atoms: _383  and  _385
REMARK  162  A    between atoms: _385  and  _386
REMARK  163  A    between atoms: _388  and  _390
REMARK  164  A    between atoms: _390  and  _391
REMARK  165  A    between atoms: _393  and  _395
REMARK  166  A    between atoms: _395  and  _396
REMARK  167  A    between atoms: _395  and  _398
REMARK  168  A    between atoms: _398  and  _399
REMARK  169  A    between atoms: _402  and  _404
REMARK  170  A    between atoms: _404  and  _405
REMARK  171  A    between atoms: _407  and  _409
REMARK  172  A    between atoms: _409  and  _410
REMARK  173  A    between atoms: _412  and  _414
REMARK  174  A    between atoms: _414  and  _415
REMARK  175  A    between atoms: _414  and  _417
REMARK  176  A    between atoms: _417  and  _418
REMARK  177  A    between atoms: _424  and  _426
REMARK  178  A    between atoms: _426  and  _427
REMARK  179  A    between atoms: _426  and  _429
REMARK  180  A    between atoms: _429  and  _430
REMARK  181  A    between atoms: _433  and  _435
REMARK  182  A    between atoms: _435  and  _436
REMARK  183  A    between atoms: _435  and  _438
REMARK  184  A    between atoms: _441  and  _443
REMARK  185  A    between atoms: _443  and  _444
REMARK  186  A    between atoms: _443  and  _446
REMARK  187  A    between atoms: _446  and  _447
REMARK  188  A    between atoms: _450  and  _452
REMARK  189  A    between atoms: _452  and  _453
REMARK  190  A    between atoms: _452  and  _455
REMARK  191  A    between atoms: _455  and  _456
REMARK  192  A    between atoms: _460  and  _461
REMARK  193  A    between atoms: _466  and  _468
REMARK  194  A    between atoms: _468  and  _469
REMARK  195  A    between atoms: _468  and  _471
REMARK  196  A    between atoms: _474  and  _476
REMARK  197  A    between atoms: _476  and  _477
REMARK  198  A    between atoms: _476  and  _479
REMARK  199  A    between atoms: _479  and  _480
REMARK  200  A    between atoms: _485  and  _487
REMARK  201  A    between atoms: _487  and  _488
REMARK  202  A    between atoms: _487  and  _490
REMARK  203  A    between atoms: _490  and  _491
REMARK  204  A    between atoms: _494  and  _496
REMARK  205  A    between atoms: _496  and  _497
REMARK  206  A    between atoms: _496  and  _499
REMARK  207  A    between atoms: _499  and  _500
REMARK  208  A    between atoms: _503  and  _505
REMARK  209  A    between atoms: _505  and  _506
REMARK  210  A    between atoms: _508  and  _510
REMARK  211  A    between atoms: _510  and  _511
REMARK  212  A    between atoms: _510  and  _513
REMARK  213  A    between atoms: _513  and  _514
REMARK  214  A    between atoms: _514  and  _515
REMARK  215  A    between atoms: _515  and  _516
REMARK  216  A    between atoms: _525  and  _527
REMARK  217  A    between atoms: _527  and  _528
REMARK  218  A    between atoms: _527  and  _530
REMARK  219  A    between atoms: _530  and  _531
REMARK                            x       y       z     vdW  Elec       q    Type
REMARK                         _______ _______ _______ _____ _____    ______ ____
ROOT
ATOM      1  C   ALA A   6      16.353  32.195  21.197  0.00  0.00    +0.241 C 
ATOM      2  O   ALA A   6      15.899  31.478  22.088  0.00  0.00    -0.273 OA
ATOM      3  N   ASP A   7      16.373  33.525  21.285  0.00  0.00    -0.297 N 
ATOM      4  H   ASP A   7      16.813  34.077  20.521  0.00  0.00    +0.150 HD
ENDROOT
BRANCH   1   5
ATOM      5  CA  ALA A   6      16.946  31.542  19.949  0.00  0.00    +0.149 C 
ATOM      6  CB  ALA A   6      15.866  30.672  19.274  0.00  0.00    +0.031 C 
BRANCH   5   8
ATOM      7  C   GLY A   5      19.359  30.999  20.139  0.00  0.00    +0.243 C 
ATOM      8  N   ALA A   6      18.074  30.699  20.351  0.00  0.00    -0.297 N 
ATOM      9  H   ALA A   6      17.860  29.804  20.836  0.00  0.00    +0.150 HD
ATOM     10  O   GLY A   5      19.732  32.040  19.606  0.00  0.00    -0.273 OA
BRANCH   7  11
ATOM     11  CA  GLY A   5      20.395  29.982  20.609  0.00  0.00    +0.176 C 
BRANCH  11  14
ATOM     12  C   THR A   4      19.610  28.712  22.539  0.00  0.00    +0.243 C 
ATOM     13  O   THR A   4      19.865  29.646  23.303  0.00  0.00    -0.273 OA
ATOM     14  N   GLY A   5      19.870  28.771  21.231  0.00  0.00    -0.295 N 
ATOM     15  H   GLY A   5      19.694  27.933  20.641  0.00  0.00    +0.150 HD
BRANCH  12  16
ATOM     16  CA  THR A   4      18.974  27.420  23.079  0.00  0.00    +0.176 C 
BRANCH  16  18
ATOM     17  C   ASP A   3      17.284  26.932  21.365  0.00  0.00    +0.241 C 
ATOM     18  N   THR A   4      18.380  26.591  22.040  0.00  0.00    -0.295 N 
ATOM     19  H   THR A   4      18.836  25.684  21.813  0.00  0.00    +0.150 HD
ATOM     20  O   ASP A   3      16.677  27.985  21.556  0.00  0.00    -0.273 OA
BRANCH  17  21
ATOM     21  CA  ASP A   3      16.835  25.964  20.270  0.00  0.00    +0.160 C 
BRANCH  21  24
ATOM     22  C   LEU A   2      15.768  23.827  20.720  0.00  0.00    +0.241 C 
ATOM     23  O   LEU A   2      16.841  23.201  20.702  0.00  0.00    -0.273 OA
ATOM     24  N   ASP A   3      15.697  25.157  20.683  0.00  0.00    -0.297 N 
ATOM     25  H   ASP A   3      14.810  25.628  20.955  0.00  0.00    +0.150 HD
BRANCH  22  26
ATOM     26  CA  LEU A   2      14.446  23.081  20.817  0.00  0.00    +0.149 C 
BRANCH  26  28
ATOM     27  C   LEU A   1      13.681  23.260  18.546  0.00  0.00    +0.238 C 
ATOM     28  N   LEU A   2      14.195  22.492  19.496  0.00  0.00    -0.297 N 
ATOM     29  H   LEU A   2      14.416  21.493  19.310  0.00  0.00    +0.150 HD
ATOM     30  O   LEU A   1      13.234  24.374  18.783  0.00  0.00    -0.274 OA
BRANCH  27  31
ATOM     31  CA  LEU A   1      13.722  22.755  17.124  0.00  0.00    +0.145 C 
BRANCH  31  32
ATOM     32  N   LEU A   1      12.405  22.875  16.500  0.00  0.00    -0.238 NA
ATOM     33  H   LEU A   1      12.231  23.681  15.867  0.00  0.00    +0.142 HD
ENDBRANCH  31  32
BRANCH  31  34
ATOM     34  CB  LEU A   1      14.766  23.635  16.437  0.00  0.00    +0.026 C 
BRANCH  34  35
ATOM     35  CG  LEU A   1      15.458  23.262  15.144  0.00  0.00    +0.002 C 
ATOM     36  CD2 LEU A   1      16.129  21.900  15.282  0.00  0.00    +0.000 C 
ATOM     37  CD1 LEU A   1      16.458  24.375  14.776  0.00  0.00    +0.000 C 
ENDBRANCH  34  35
ENDBRANCH  31  34
ENDBRANCH  27  31
ENDBRANCH  26  28
BRANCH  26  38
ATOM     38  CB  LEU A   2      14.531  22.027  21.912  0.00  0.00    +0.029 C 
BRANCH  38  39
ATOM     39  CG  LEU A   2      13.331  21.086  22.040  0.00  0.00    +0.002 C 
ATOM     40  CD2 LEU A   2      13.628  20.000  23.050  0.00  0.00    +0.000 C 
ATOM     41  CD1 LEU A   2      12.094  21.884  22.398  0.00  0.00    +0.000 C 
ENDBRANCH  38  39
ENDBRANCH  26  38
ENDBRANCH  22  26
ENDBRANCH  21  24
BRANCH  21  42
ATOM     42  CB  ASP A   3      16.467  26.740  18.999  0.00  0.00    +0.143 C 
BRANCH  42  43
ATOM     43  CG  ASP A   3      17.655  27.443  18.376  0.00  0.00    +0.367 C 
ATOM     44  OD2 ASP A   3      18.775  27.371  18.931  0.00  0.00    -0.246 OA
ATOM     45  OD1 ASP A   3      17.471  28.056  17.305  0.00  0.00    -0.246 OA
ENDBRANCH  42  43
ENDBRANCH  21  42
ENDBRANCH  17  21
ENDBRANCH  16  18
BRANCH  16  46
ATOM     46  CB  THR A   4      20.031  26.621  23.875  0.00  0.00    +0.137 C 
ATOM     47  CG2 THR A   4      19.410  25.374  24.492  0.00  0.00    +0.034 C 
BRANCH  46  48
ATOM     48  OG1 THR A   4      21.104  26.226  23.003  0.00  0.00    -0.382 OA
ATOM     49  HG1 THR A   4      21.527  27.033  22.616  0.00  0.00    +0.210 HD
ENDBRANCH  46  48
ENDBRANCH  16  46
ENDBRANCH  12  16
ENDBRANCH  11  14
ENDBRANCH   7  11
ENDBRANCH   5   8
ENDBRANCH   1   5
BRANCH   3  50
ATOM     50  CA  ASP A   7      15.788  34.234  22.438  0.00  0.00    +0.160 C 
BRANCH  50  51
ATOM     51  C   ASP A   7      14.286  33.964  22.531  0.00  0.00    +0.241 C 
ATOM     52  O   ASP A   7      13.740  33.735  23.621  0.00  0.00    -0.273 OA
ATOM     53  N   ASP A   8      13.623  34.038  21.381  0.00  0.00    -0.297 N 
ATOM     54  H   ASP A   8      14.169  34.192  20.509  0.00  0.00    +0.150 HD
BRANCH  53  55
ATOM     55  CA  ASP A   8      12.177  33.916  21.273  0.00  0.00    +0.160 C 
BRANCH  55  56
ATOM     56  C   ASP A   8      11.778  32.926  20.188  0.00  0.00    +0.241 C 
ATOM     57  N   THR A   9      10.719  32.193  20.499  0.00  0.00    -0.295 N 
ATOM     58  H   THR A   9      10.305  32.331  21.443  0.00  0.00    +0.150 HD
ATOM     59  O   ASP A   8      12.436  32.781  19.154  0.00  0.00    -0.273 OA
BRANCH  57  60
ATOM     60  CA  THR A   9      10.087  31.213  19.634  0.00  0.00    +0.176 C 
BRANCH  60  61
ATOM     61  C   THR A   9       9.669  31.872  18.323  0.00  0.00    +0.243 C 
ATOM     62  O   THR A   9       9.088  32.949  18.313  0.00  0.00    -0.273 OA
ATOM     63  N   ILE A  10       9.984  31.212  17.214  0.00  0.00    -0.297 N 
ATOM     64  H   ILE A  10      10.548  30.341  17.282  0.00  0.00    +0.150 HD
BRANCH  63  65
ATOM     65  CA  ILE A  10       9.557  31.682  15.913  0.00  0.00    +0.149 C 
BRANCH  65  66
ATOM     66  C   ILE A  10       9.027  30.494  15.123  0.00  0.00    +0.241 C 
ATOM     67  O   ILE A  10       9.713  29.474  14.975  0.00  0.00    -0.273 OA
ATOM     68  N   LEU A  11       7.803  30.639  14.623  0.00  0.00    -0.298 N 
ATOM     69  H   LEU A  11       7.278  31.517  14.810  0.00  0.00    +0.150 HD
BRANCH  68  70
ATOM     70  CA  LEU A  11       7.183  29.599  13.822  0.00  0.00    +0.137 C 
BRANCH  70  71
ATOM     71  C   LEU A  11       6.974  30.030  12.385  0.00  0.00    +0.227 C 
ATOM     72  O   LEU A  11       6.872  31.220  12.051  0.00  0.00    -0.286 OA
ENDBRANCH  70  71
BRANCH  70  73
ATOM     73  CB  LEU A  11       5.842  29.137  14.418  0.00  0.00    +0.028 C 
BRANCH  73  74
ATOM     74  CG  LEU A  11       5.789  28.794  15.904  0.00  0.00    +0.002 C 
ATOM     75  CD2 LEU A  11       4.328  28.504  16.336  0.00  0.00    +0.000 C 
ATOM     76  CD1 LEU A  11       6.683  27.615  16.243  0.00  0.00    +0.000 C 
ENDBRANCH  73  74
ENDBRANCH  70  73
ENDBRANCH  68  70
ENDBRANCH  65  66
BRANCH  65  77
ATOM     77  CB  ILE A  10      10.682  32.408  15.156  0.00  0.00    +0.027 C 
ATOM     78  CG2 ILE A  10      11.960  31.594  15.190  0.00  0.00    +0.002 C 
BRANCH  77  79
ATOM     79  CG1 ILE A  10      10.258  32.694  13.709  0.00  0.00    +0.002 C 
ATOM     80  CD1 ILE A  10      10.830  33.934  13.149  0.00  0.00    +0.000 C 
ENDBRANCH  77  79
ENDBRANCH  65  77
ENDBRANCH  63  65
ENDBRANCH  60  61
BRANCH  60  81
ATOM     81  CB  THR A   9       8.863  30.631  20.390  0.00  0.00    +0.137 C 
ATOM     82  CG2 THR A   9       8.000  29.715  19.530  0.00  0.00    +0.034 C 
BRANCH  81  83
ATOM     83  OG1 THR A   9       9.336  29.900  21.524  0.00  0.00    -0.382 OA
ATOM     84  HG1 THR A   9       9.843  30.508  22.119  0.00  0.00    +0.210 HD
ENDBRANCH  81  83
ENDBRANCH  60  81
ENDBRANCH  57  60
ENDBRANCH  55  56
BRANCH  55  85
ATOM     85  CB  ASP A   8      11.496  35.264  21.014  0.00  0.00    +0.143 C 
BRANCH  85  86
ATOM     86  CG  ASP A   8      11.536  36.169  22.219  0.00  0.00    +0.367 C 
ATOM     87  OD2 ASP A   8      11.111  35.741  23.313  0.00  0.00    -0.246 OA
ATOM     88  OD1 ASP A   8      11.995  37.315  22.061  0.00  0.00    -0.246 OA
ENDBRANCH  85  86
ENDBRANCH  55  85
ENDBRANCH  53  55
ENDBRANCH  50  51
BRANCH  50  89
ATOM     89  CB  ASP A   7      15.969  35.763  22.343  0.00  0.00    +0.143 C 
BRANCH  89  90
ATOM     90  CG  ASP A   7      17.426  36.220  22.423  0.00  0.00    +0.367 C 
ATOM     91  OD2 ASP A   7      18.304  35.456  22.865  0.00  0.00    -0.246 OA
ATOM     92  OD1 ASP A   7      17.696  37.392  22.079  0.00  0.00    -0.246 OA
ENDBRANCH  89  90
ENDBRANCH  50  89
ENDBRANCH   3  50
TORSDOF 40
REMARK  Name = ../refined-set-2016/4q1x/4q1x_pocket.pdb
REMARK  219 active torsions:
REMARK  status: ('A' for Active; 'I' for Inactive)
REMARK    1  A    between atoms: _1  and  _3
REMARK    2  A    between atoms: _3  and  _4
REMARK    3  A    between atoms: _3  and  _6
REMARK    4  A    between atoms: _6  and  _7
REMARK    5  A    between atoms: _7  and  _8
REMARK    6  A    between atoms: _8  and  _9
REMARK    7  A    between atoms: _18  and  _20
REMARK    8  A    between atoms: _20  and  _21
REMARK    9  A    between atoms: _20  and  _23
REMARK   10  A    between atoms: _23  and  _24
REMARK   11  A    between atoms: _27  and  _29
REMARK   12  A    between atoms: _29  and  _30
REMARK   13  A    between atoms: _29  and  _32
REMARK   14  A    between atoms: _32  and  _33
REMARK   15  A    between atoms: _36  and  _38
REMARK   16  A    between atoms: _38  and  _39
REMARK   17  A    between atoms: _38  and  _41
REMARK   18  A    between atoms: _41  and  _42
REMARK   19  A    between atoms: _45  and  _47
REMARK   20  A    between atoms: _47  and  _48
REMARK   21  A    between atoms: _47  and  _50
REMARK   22  A    between atoms: _50  and  _51
REMARK   23  A    between atoms: _54  and  _56
REMARK   24  A    between atoms: _56  and  _57
REMARK   25  A    between atoms: _59  and  _61
REMARK   26  A    between atoms: _61  and  _62
REMARK   27  A    between atoms: _65  and  _67
REMARK   28  A    between atoms: _67  and  _68
REMARK   29  A    between atoms: _67  and  _70
REMARK   30  A    between atoms: _70  and  _71
REMARK   31  A    between atoms: _74  and  _76
REMARK   32  A    between atoms: _76  and  _77
REMARK   33  A    between atoms: _76  and  _79
REMARK   34  A    between atoms: _79  and  _80
REMARK   35  A    between atoms: _83  and  _85
REMARK   36  A    between atoms: _85  and  _86
REMARK   37  A    between atoms: _85  and  _88
REMARK   38  A    between atoms: _88  and  _89
REMARK   39  A    between atoms: _92  and  _94
REMARK   40  A    between atoms: _94  and  _95
REMARK   41  A    between atoms: _94  and  _97
REMARK   42  A    between atoms: _97  and  _98
REMARK   43  A    between atoms: _101  and  _103
REMARK   44  A    between atoms: _103  and  _104
REMARK   45  A    between atoms: _103  and  _106
REMARK   46  A    between atoms: _106  and  _107
REMARK   47  A    between atoms: _110  and  _112
REMARK   48  A    between atoms: _112  and  _113
REMARK   49  A    between atoms: _115  and  _117
REMARK   50  A    between atoms: _117  and  _118
REMARK   51  A    between atoms: _120  and  _122
REMARK   52  A    between atoms: _122  and  _123
REMARK   53  A    between atoms: _122  and  _125
REMARK   54  A    between atoms: _125  and  _126
REMARK   55  A    between atoms: _129  and  _131
REMARK   56  A    between atoms: _131  and  _132
REMARK   57  A    between atoms: _134  and  _136
REMARK   58  A    between atoms: _136  and  _137
REMARK   59  A    between atoms: _139  and  _141
REMARK   60  A    between atoms: _141  and  _142
REMARK   61  A    between atoms: _141  and  _144
REMARK   62  A    between atoms: _144  and  _145
REMARK   63  A    between atoms: _148  and  _150
REMARK   64  A    between atoms: _150  and  _151
REMARK   65  A    between atoms: _150  and  _153
REMARK   66  A    between atoms: _153  and  _154
REMARK   67  A    between atoms: _157  and  _159
REMARK   68  A    between atoms: _159  and  _160
REMARK   69  A    between atoms: _159  and  _162
REMARK   70  A    between atoms: _162  and  _163
REMARK   71  A    between atoms: _167  and  _168
REMARK   72  A    between atoms: _173  and  _175
REMARK   73  A    between atoms: _175  and  _176
REMARK   74  A    between atoms: _175  and  _178
REMARK   75  A    between atoms: _181  and  _183
REMARK   76  A    between atoms: _183  and  _184
REMARK   77  A    between atoms: _183  and  _186
REMARK   78  A    between atoms: _186  and  _187
REMARK   79  A    between atoms: _192  and  _194
REMARK   80  A    between atoms: _194  and  _195
REMARK   81  A    between atoms: _194  and  _197
REMARK   82  A    between atoms: _197  and  _198
REMARK   83  A    between atoms: _201  and  _203
REMARK   84  A    between atoms: _203  and  _204
REMARK   85  A    between atoms: _203  and  _206
REMARK   86  A    between atoms: _206  and  _207
REMARK   87  A    between atoms: _210  and  _212
REMARK   88  A    between atoms: _212  and  _213
REMARK   89  A    between atoms: _215  and  _217
REMARK   90  A    between atoms: _217  and  _218
REMARK   91  A    between atoms: _217  and  _220
REMARK   92  A    between atoms: _220  and  _221
REMARK   93  A    between atoms: _221  and  _222
REMARK   94  A    between atoms: _222  and  _223
REMARK   95  A    between atoms: _232  and  _234
REMARK   96  A    between atoms: _234  and  _235
REMARK   97  A    between atoms: _234  and  _237
REMARK   98  A    between atoms: _237  and  _238
REMARK   99  A    between atoms: _243  and  _245
REMARK  100  A    between atoms: _245  and  _246
REMARK  101  A    between atoms: _245  and  _248
REMARK  102  A    between atoms: _248  and  _249
REMARK  103  A    between atoms: _249  and  _250
REMARK  104  A    between atoms: _250  and  _251
REMARK  105  A    between atoms: _260  and  _262
REMARK  106  A    between atoms: _262  and  _263
REMARK  107  A    between atoms: _262  and  _265
REMARK  108  A    between atoms: _265  and  _266
REMARK  109  A    between atoms: _269  and  _271
REMARK  110  A    between atoms: _271  and  _272
REMARK  111  A    between atoms: _271  and  _274
REMARK  112  A    between atoms: _274  and  _275
REMARK  113  A    between atoms: _278  and  _280
REMARK  114  A    between atoms: _280  and  _281
REMARK  115  A    between atoms: _280  and  _283
REMARK  116  A    between atoms: _283  and  _284
REMARK  117  A    between atoms: _287  and  _289
REMARK  118  A    between atoms: _289  and  _290
REMARK  119  A    between atoms: _289  and  _292
REMARK  120  A    between atoms: _292  and  _293
REMARK  121  A    between atoms: _296  and  _298
REMARK  122  A    between atoms: _298  and  _299
REMARK  123  A    between atoms: _301  and  _303
REMARK  124  A    between atoms: _303  and  _304
REMARK  125  A    between atoms: _307  and  _309
REMARK  126  A    between atoms: _309  and  _310
REMARK  127  A    between atoms: _309  and  _312
REMARK  128  A    between atoms: _312  and  _313
REMARK  129  A    between atoms: _316  and  _318
REMARK  130  A    between atoms: _318  and  _319
REMARK  131  A    between atoms: _318  and  _321
REMARK  132  A    between atoms: _321  and  _322
REMARK  133  A    between atoms: _325  and  _327
REMARK  134  A    between atoms: _327  and  _328
REMARK  135  A    between atoms: _327  and  _330
REMARK  136  A    between atoms: _330  and  _331
REMARK  137  A    between atoms: _334  and  _336
REMARK  138  A    between atoms: _336  and  _337
REMARK  139  A    between atoms: _336  and  _339
REMARK  140  A    between atoms: _339  and  _340
REMARK  141  A    between atoms: _343  and  _345
REMARK  142  A    between atoms: _345  and  _346
REMARK  143  A    between atoms: _345  and  _348
REMARK  144  A    between atoms: _348  and  _349
REMARK  145  A    between atoms: _352  and  _354
REMARK  146  A    between atoms: _354  and  _355
REMARK  147  A    between atoms: _354  and  _357
REMARK  148  A    between atoms: _357  and  _358
REMARK  149  A    between atoms: _358  and  _359
REMARK  150  A    between atoms: _359  and  _360
REMARK  151  A    between atoms: _360  and  _361
REMARK  152  A    between atoms: _365  and  _367
REMARK  153  A    between atoms: _367  and  _368
REMARK  154  A    between atoms: _367  and  _370
REMARK  155  A    between atoms: _370  and  _371
REMARK  156  A    between atoms: _371  and  _372
REMARK  157  A    between atoms: _374  and  _376
REMARK  158  A    between atoms: _376  and  _377
REMARK  159  A    between atoms: _376  and  _379
REMARK  160  A    between atoms: _379  and  _380
REMARK  161  A    between atoms: _383  and  _385
REMARK  162  A    between atoms: _385  and  _386
REMARK  163  A    between atoms: _388  and  _390
REMARK  164  A    between atoms: _390  and  _391
REMARK  165  A    between atoms: _393  and  _395
REMARK  166  A    between atoms: _395  and  _396
REMARK  167  A    between atoms: _395  and  _398
REMARK  168  A    between atoms: _398  and  _399
REMARK  169  A    between atoms: _402  and  _404
REMARK  170  A    between atoms: _404  and  _405
REMARK  171  A    between atoms: _407  and  _409
REMARK  172  A    between atoms: _409  and  _410
REMARK  173  A    between atoms: _412  and  _414
REMARK  174  A    between atoms: _414  and  _415
REMARK  175  A    between atoms: _414  and  _417
REMARK  176  A    between atoms: _417  and  _418
REMARK  177  A    between atoms: _424  and  _426
REMARK  178  A    between atoms: _426  and  _427
REMARK  179  A    between atoms: _426  and  _429
REMARK  180  A    between atoms: _429  and  _430
REMARK  181  A    between atoms: _433  and  _435
REMARK  182  A    between atoms: _435  and  _436
REMARK  183  A    between atoms: _435  and  _438
REMARK  184  A    between atoms: _441  and  _443
REMARK  185  A    between atoms: _443  and  _444
REMARK  186  A    between atoms: _443  and  _446
REMARK  187  A    between atoms: _446  and  _447
REMARK  188  A    between atoms: _450  and  _452
REMARK  189  A    between atoms: _452  and  _453
REMARK  190  A    between atoms: _452  and  _455
REMARK  191  A    between atoms: _455  and  _456
REMARK  192  A    between atoms: _460  and  _461
REMARK  193  A    between atoms: _466  and  _468
REMARK  194  A    between atoms: _468  and  _469
REMARK  195  A    between atoms: _468  and  _471
REMARK  196  A    between atoms: _474  and  _476
REMARK  197  A    between atoms: _476  and  _477
REMARK  198  A    between atoms: _476  and  _479
REMARK  199  A    between atoms: _479  and  _480
REMARK  200  A    between atoms: _485  and  _487
REMARK  201  A    between atoms: _487  and  _488
REMARK  202  A    between atoms: _487  and  _490
REMARK  203  A    between atoms: _490  and  _491
REMARK  204  A    between atoms: _494  and  _496
REMARK  205  A    between atoms: _496  and  _497
REMARK  206  A    between atoms: _496  and  _499
REMARK  207  A    between atoms: _499  and  _500
REMARK  208  A    between atoms: _503  and  _505
REMARK  209  A    between atoms: _505  and  _506
REMARK  210  A    between atoms: _508  and  _510
REMARK  211  A    between atoms: _510  and  _511
REMARK  212  A    between atoms: _510  and  _513
REMARK  213  A    between atoms: _513  and  _514
REMARK  214  A    between atoms: _514  and  _515
REMARK  215  A    between atoms: _515  and  _516
REMARK  216  A    between atoms: _525  and  _527
REMARK  217  A    between atoms: _527  and  _528
REMARK  218  A    between atoms: _527  and  _530
REMARK  219  A    between atoms: _530  and  _531
REMARK                            x       y       z     vdW  Elec       q    Type
REMARK                         _______ _______ _______ _____ _____    ______ ____
ROOT
ATOM      1  C   GLY A   5      21.508  35.774  11.369  0.00  0.00    +0.243 C 
ATOM      2  N   ILE A   6      21.935  34.554  11.100  0.00  0.00    -0.297 N 
ATOM      3  H   ILE A   6      21.587  33.752  11.664  0.00  0.00    +0.150 HD
ATOM      4  O   GLY A   5      21.868  36.764  10.730  0.00  0.00    -0.273 OA
ENDROOT
BRANCH   2   5
ATOM      5  CA  ILE A   6      22.880  34.318  10.032  0.00  0.00    +0.149 C 
BRANCH   5   6
ATOM      6  C   ILE A   6      22.208  34.661   8.709  0.00  0.00    +0.241 C 
ATOM      7  O   ILE A   6      21.112  34.182   8.410  0.00  0.00    -0.273 OA
ATOM      8  N   GLY A   7      22.868  35.516   7.932  0.00  0.00    -0.295 N 
ATOM      9  H   GLY A   7      23.782  35.892   8.257  0.00  0.00    +0.150 HD
BRANCH   8  10
ATOM     10  CA  GLY A   7      22.345  35.942   6.635  0.00  0.00    +0.176 C 
BRANCH  10  11
ATOM     11  C   GLY A   7      21.571  37.246   6.696  0.00  0.00    +0.243 C 
ATOM     12  N   GLY A   8      21.212  37.713   7.885  0.00  0.00    -0.295 N 
ATOM     13  H   GLY A   8      21.426  37.163   8.741  0.00  0.00    +0.150 HD
ATOM     14  O   GLY A   7      21.303  37.835   5.666  0.00  0.00    -0.273 OA
BRANCH  12  15
ATOM     15  CA  GLY A   8      20.521  38.990   8.001  0.00  0.00    +0.176 C 
BRANCH  15  16
ATOM     16  C   GLY A   8      19.214  38.886   8.743  0.00  0.00    +0.243 C 
ATOM     17  O   GLY A   8      19.048  38.029   9.608  0.00  0.00    -0.273 OA
ATOM     18  N   PHE A   9      18.291  39.780   8.419  0.00  0.00    -0.297 N 
ATOM     19  H   PHE A   9      18.436  40.381   7.583  0.00  0.00    +0.150 HD
BRANCH  18  20
ATOM     20  CA  PHE A   9      17.082  39.939   9.206  0.00  0.00    +0.153 C 
BRANCH  20  21
ATOM     21  C   PHE A   9      15.873  39.452   8.422  0.00  0.00    +0.241 C 
ATOM     22  N   ILE A  10      14.856  38.983   9.136  0.00  0.00    -0.298 N 
ATOM     23  H   ILE A  10      15.006  38.756  10.140  0.00  0.00    +0.150 HD
ATOM     24  O   PHE A   9      15.868  39.519   7.200  0.00  0.00    -0.273 OA
BRANCH  22  25
ATOM     25  CA  ILE A  10      13.525  38.775   8.550  0.00  0.00    +0.137 C 
BRANCH  25  26
ATOM     26  C   ILE A  10      12.477  39.550   9.343  0.00  0.00    +0.227 C 
ATOM     27  O   ILE A  10      12.668  39.847  10.523  0.00  0.00    -0.286 OA
ENDBRANCH  25  26
BRANCH  25  28
ATOM     28  CB  ILE A  10      13.126  37.288   8.480  0.00  0.00    +0.026 C 
ATOM     29  CG2 ILE A  10      13.971  36.592   7.411  0.00  0.00    +0.002 C 
BRANCH  28  30
ATOM     30  CG1 ILE A  10      13.225  36.613   9.849  0.00  0.00    +0.002 C 
ATOM     31  CD1 ILE A  10      12.341  35.396   9.969  0.00  0.00    +0.000 C 
ENDBRANCH  28  30
ENDBRANCH  25  28
ENDBRANCH  22  25
ENDBRANCH  20  21
BRANCH  20  32
ATOM     32  CB  PHE A   9      16.887  41.409   9.584  0.00  0.00    +0.055 C 
BRANCH  32  33
ATOM     33  CG  PHE A   9      17.710  41.854  10.777  0.00  0.00    -0.020 A 
ATOM     34  CD2 PHE A   9      17.115  42.053  12.002  0.00  0.00    -0.004 A 
ATOM     35  CE2 PHE A   9      17.875  42.483  13.093  0.00  0.00    -0.000 A 
ATOM     36  CZ  PHE A   9      19.245  42.680  12.957  0.00  0.00    -0.000 A 
ATOM     37  CE1 PHE A   9      19.838  42.481  11.738  0.00  0.00    -0.000 A 
ATOM     38  CD1 PHE A   9      19.072  42.075  10.660  0.00  0.00    -0.004 A 
ENDBRANCH  32  33
ENDBRANCH  20  32
ENDBRANCH  18  20
ENDBRANCH  15  16
ENDBRANCH  12  15
ENDBRANCH  10  11
ENDBRANCH   8  10
ENDBRANCH   5   6
BRANCH   5  39
ATOM     39  CB  ILE A   6      23.411  32.878  10.059  0.00  0.00    +0.027 C 
ATOM     40  CG2 ILE A   6      24.053  32.504   8.710  0.00  0.00    +0.002 C 
BRANCH  39  41
ATOM     41  CG1 ILE A   6      24.413  32.737  11.220  0.00  0.00    +0.002 C 
ATOM     42  CD1 ILE A   6      24.585  31.336  11.733  0.00  0.00    +0.000 C 
ENDBRANCH  39  41
ENDBRANCH   5  39
ENDBRANCH   2   5
BRANCH   1  43
ATOM     43  CA  GLY A   5      20.529  35.891  12.515  0.00  0.00    +0.176 C 
BRANCH  43  46
ATOM     44  C   GLY A   4      19.079  37.676  13.275  0.00  0.00    +0.243 C 
ATOM     45  O   GLY A   4      19.128  37.299  14.442  0.00  0.00    -0.273 OA
ATOM     46  N   GLY A   5      19.627  37.008  12.273  0.00  0.00    -0.295 N 
ATOM     47  H   GLY A   5      19.409  37.286  11.295  0.00  0.00    +0.150 HD
BRANCH  44  48
ATOM     48  CA  GLY A   4      18.364  38.954  12.902  0.00  0.00    +0.176 C 
BRANCH  48  50
ATOM     49  C   ILE A   3      15.939  39.140  13.068  0.00  0.00    +0.241 C 
ATOM     50  N   GLY A   4      17.130  39.132  13.657  0.00  0.00    -0.295 N 
ATOM     51  H   GLY A   4      17.183  39.257  14.688  0.00  0.00    +0.150 HD
ATOM     52  O   ILE A   3      15.758  38.905  11.866  0.00  0.00    -0.273 OA
BRANCH  49  53
ATOM     53  CA  ILE A   3      14.775  39.474  13.980  0.00  0.00    +0.149 C 
BRANCH  53  56
ATOM     54  C   MET A   2      13.483  41.491  13.627  0.00  0.00    +0.241 C 
ATOM     55  O   MET A   2      13.830  41.963  14.710  0.00  0.00    -0.273 OA
ATOM     56  N   ILE A   3      13.816  40.269  13.225  0.00  0.00    -0.297 N 
ATOM     57  H   ILE A   3      13.388  39.876  12.363  0.00  0.00    +0.150 HD
BRANCH  54  58
ATOM     58  CA  MET A   2      12.613  42.324  12.709  0.00  0.00    +0.149 C 
BRANCH  58  60
ATOM     59  C   LYS A   1      10.283  42.523  13.413  0.00  0.00    +0.238 C 
ATOM     60  N   MET A   2      11.555  42.881  13.548  0.00  0.00    -0.297 N 
ATOM     61  H   MET A   2      11.806  43.581  14.275  0.00  0.00    +0.150 HD
ATOM     62  O   LYS A   1       9.881  41.854  12.466  0.00  0.00    -0.274 OA
BRANCH  59  63
ATOM     63  CA  LYS A   1       9.301  43.026  14.481  0.00  0.00    +0.145 C 
BRANCH  63  64
ATOM     64  N   LYS A   1       7.971  43.044  13.906  0.00  0.00    -0.238 NA
ATOM     65  H   LYS A   1       7.729  42.330  13.190  0.00  0.00    +0.142 HD
ENDBRANCH  63  64
BRANCH  63  66
ATOM     66  CB  LYS A   1       9.286  42.095  15.699  0.00  0.00    +0.026 C 
BRANCH  66  67
ATOM     67  CG  LYS A   1      10.467  42.256  16.620  0.00  0.00    -0.000 C 
BRANCH  67  68
ATOM     68  CD  LYS A   1      10.416  41.275  17.781  0.00  0.00    -0.024 C 
BRANCH  68  69
ATOM     69  CE  LYS A   1      11.532  41.570  18.760  0.00  0.00    -0.086 C 
BRANCH  69  70
ATOM     70  NZ  LYS A   1      11.837  40.409  19.650  0.00  0.00    +0.380 N 
ATOM     71  HZ1 LYS A   1      12.608  40.665  20.300  0.00  0.00    -0.089 HD
ATOM     72  HZ2 LYS A   1      10.988  40.161  20.197  0.00  0.00    -0.089 HD
ATOM     73  HZ3 LYS A   1      12.127  39.596  19.070  0.00  0.00    -0.089 HD
ENDBRANCH  69  70
ENDBRANCH  68  69
ENDBRANCH  67  68
ENDBRANCH  66  67
ENDBRANCH  63  66
ENDBRANCH  59  63
ENDBRANCH  58  60
BRANCH  58  74
ATOM     74  CB  MET A   2      13.479  43.444  12.119  0.00  0.00    +0.041 C 
BRANCH  74  75
ATOM     75  CG  MET A   2      12.726  44.411  11.259  0.00  0.00    +0.060 C 
BRANCH  75  76
ATOM     76  SD  MET A   2      12.387  43.632   9.689  0.00  0.00    -0.139 S 
ATOM     77  CE  MET A   2      13.971  43.855   8.868  0.00  0.00    +0.069 C 
ENDBRANCH  75  76
ENDBRANCH  74  75
ENDBRANCH  58  74
ENDBRANCH  54  58
ENDBRANCH  53  56
BRANCH  53  78
ATOM     78  CB  ILE A   3      14.159  38.188  14.628  0.00  0.00    +0.027 C 
ATOM     79  CG2 ILE A   3      12.958  38.562  15.511  0.00  0.00    +0.002 C 
BRANCH  78  80
ATOM     80  CG1 ILE A   3      13.783  37.143  13.571  0.00  0.00    +0.002 C 
ATOM     81  CD1 ILE A   3      13.353  35.808  14.155  0.00  0.00    +0.000 C 
ENDBRANCH  78  80
ENDBRANCH  53  78
ENDBRANCH  49  53
ENDBRANCH  48  50
ENDBRANCH  44  48
ENDBRANCH  43  46
ENDBRANCH   1  43
TORSDOF 36
REMARK  Name = ../refined-set-2016/4q1x/4q1x_pocket.pdb
REMARK  219 active torsions:
REMARK  status: ('A' for Active; 'I' for Inactive)
REMARK    1  A    between atoms: _1  and  _3
REMARK    2  A    between atoms: _3  and  _4
REMARK    3  A    between atoms: _3  and  _6
REMARK    4  A    between atoms: _6  and  _7
REMARK    5  A    between atoms: _7  and  _8
REMARK    6  A    between atoms: _8  and  _9
REMARK    7  A    between atoms: _18  and  _20
REMARK    8  A    between atoms: _20  and  _21
REMARK    9  A    between atoms: _20  and  _23
REMARK   10  A    between atoms: _23  and  _24
REMARK   11  A    between atoms: _27  and  _29
REMARK   12  A    between atoms: _29  and  _30
REMARK   13  A    between atoms: _29  and  _32
REMARK   14  A    between atoms: _32  and  _33
REMARK   15  A    between atoms: _36  and  _38
REMARK   16  A    between atoms: _38  and  _39
REMARK   17  A    between atoms: _38  and  _41
REMARK   18  A    between atoms: _41  and  _42
REMARK   19  A    between atoms: _45  and  _47
REMARK   20  A    between atoms: _47  and  _48
REMARK   21  A    between atoms: _47  and  _50
REMARK   22  A    between atoms: _50  and  _51
REMARK   23  A    between atoms: _54  and  _56
REMARK   24  A    between atoms: _56  and  _57
REMARK   25  A    between atoms: _59  and  _61
REMARK   26  A    between atoms: _61  and  _62
REMARK   27  A    between atoms: _65  and  _67
REMARK   28  A    between atoms: _67  and  _68
REMARK   29  A    between atoms: _67  and  _70
REMARK   30  A    between atoms: _70  and  _71
REMARK   31  A    between atoms: _74  and  _76
REMARK   32  A    between atoms: _76  and  _77
REMARK   33  A    between atoms: _76  and  _79
REMARK   34  A    between atoms: _79  and  _80
REMARK   35  A    between atoms: _83  and  _85
REMARK   36  A    between atoms: _85  and  _86
REMARK   37  A    between atoms: _85  and  _88
REMARK   38  A    between atoms: _88  and  _89
REMARK   39  A    between atoms: _92  and  _94
REMARK   40  A    between atoms: _94  and  _95
REMARK   41  A    between atoms: _94  and  _97
REMARK   42  A    between atoms: _97  and  _98
REMARK   43  A    between atoms: _101  and  _103
REMARK   44  A    between atoms: _103  and  _104
REMARK   45  A    between atoms: _103  and  _106
REMARK   46  A    between atoms: _106  and  _107
REMARK   47  A    between atoms: _110  and  _112
REMARK   48  A    between atoms: _112  and  _113
REMARK   49  A    between atoms: _115  and  _117
REMARK   50  A    between atoms: _117  and  _118
REMARK   51  A    between atoms: _120  and  _122
REMARK   52  A    between atoms: _122  and  _123
REMARK   53  A    between atoms: _122  and  _125
REMARK   54  A    between atoms: _125  and  _126
REMARK   55  A    between atoms: _129  and  _131
REMARK   56  A    between atoms: _131  and  _132
REMARK   57  A    between atoms: _134  and  _136
REMARK   58  A    between atoms: _136  and  _137
REMARK   59  A    between atoms: _139  and  _141
REMARK   60  A    between atoms: _141  and  _142
REMARK   61  A    between atoms: _141  and  _144
REMARK   62  A    between atoms: _144  and  _145
REMARK   63  A    between atoms: _148  and  _150
REMARK   64  A    between atoms: _150  and  _151
REMARK   65  A    between atoms: _150  and  _153
REMARK   66  A    between atoms: _153  and  _154
REMARK   67  A    between atoms: _157  and  _159
REMARK   68  A    between atoms: _159  and  _160
REMARK   69  A    between atoms: _159  and  _162
REMARK   70  A    between atoms: _162  and  _163
REMARK   71  A    between atoms: _167  and  _168
REMARK   72  A    between atoms: _173  and  _175
REMARK   73  A    between atoms: _175  and  _176
REMARK   74  A    between atoms: _175  and  _178
REMARK   75  A    between atoms: _181  and  _183
REMARK   76  A    between atoms: _183  and  _184
REMARK   77  A    between atoms: _183  and  _186
REMARK   78  A    between atoms: _186  and  _187
REMARK   79  A    between atoms: _192  and  _194
REMARK   80  A    between atoms: _194  and  _195
REMARK   81  A    between atoms: _194  and  _197
REMARK   82  A    between atoms: _197  and  _198
REMARK   83  A    between atoms: _201  and  _203
REMARK   84  A    between atoms: _203  and  _204
REMARK   85  A    between atoms: _203  and  _206
REMARK   86  A    between atoms: _206  and  _207
REMARK   87  A    between atoms: _210  and  _212
REMARK   88  A    between atoms: _212  and  _213
REMARK   89  A    between atoms: _215  and  _217
REMARK   90  A    between atoms: _217  and  _218
REMARK   91  A    between atoms: _217  and  _220
REMARK   92  A    between atoms: _220  and  _221
REMARK   93  A    between atoms: _221  and  _222
REMARK   94  A    between atoms: _222  and  _223
REMARK   95  A    between atoms: _232  and  _234
REMARK   96  A    between atoms: _234  and  _235
REMARK   97  A    between atoms: _234  and  _237
REMARK   98  A    between atoms: _237  and  _238
REMARK   99  A    between atoms: _243  and  _245
REMARK  100  A    between atoms: _245  and  _246
REMARK  101  A    between atoms: _245  and  _248
REMARK  102  A    between atoms: _248  and  _249
REMARK  103  A    between atoms: _249  and  _250
REMARK  104  A    between atoms: _250  and  _251
REMARK  105  A    between atoms: _260  and  _262
REMARK  106  A    between atoms: _262  and  _263
REMARK  107  A    between atoms: _262  and  _265
REMARK  108  A    between atoms: _265  and  _266
REMARK  109  A    between atoms: _269  and  _271
REMARK  110  A    between atoms: _271  and  _272
REMARK  111  A    between atoms: _271  and  _274
REMARK  112  A    between atoms: _274  and  _275
REMARK  113  A    between atoms: _278  and  _280
REMARK  114  A    between atoms: _280  and  _281
REMARK  115  A    between atoms: _280  and  _283
REMARK  116  A    between atoms: _283  and  _284
REMARK  117  A    between atoms: _287  and  _289
REMARK  118  A    between atoms: _289  and  _290
REMARK  119  A    between atoms: _289  and  _292
REMARK  120  A    between atoms: _292  and  _293
REMARK  121  A    between atoms: _296  and  _298
REMARK  122  A    between atoms: _298  and  _299
REMARK  123  A    between atoms: _301  and  _303
REMARK  124  A    between atoms: _303  and  _304
REMARK  125  A    between atoms: _307  and  _309
REMARK  126  A    between atoms: _309  and  _310
REMARK  127  A    between atoms: _309  and  _312
REMARK  128  A    between atoms: _312  and  _313
REMARK  129  A    between atoms: _316  and  _318
REMARK  130  A    between atoms: _318  and  _319
REMARK  131  A    between atoms: _318  and  _321
REMARK  132  A    between atoms: _321  and  _322
REMARK  133  A    between atoms: _325  and  _327
REMARK  134  A    between atoms: _327  and  _328
REMARK  135  A    between atoms: _327  and  _330
REMARK  136  A    between atoms: _330  and  _331
REMARK  137  A    between atoms: _334  and  _336
REMARK  138  A    between atoms: _336  and  _337
REMARK  139  A    between atoms: _336  and  _339
REMARK  140  A    between atoms: _339  and  _340
REMARK  141  A    between atoms: _343  and  _345
REMARK  142  A    between atoms: _345  and  _346
REMARK  143  A    between atoms: _345  and  _348
REMARK  144  A    between atoms: _348  and  _349
REMARK  145  A    between atoms: _352  and  _354
REMARK  146  A    between atoms: _354  and  _355
REMARK  147  A    between atoms: _354  and  _357
REMARK  148  A    between atoms: _357  and  _358
REMARK  149  A    between atoms: _358  and  _359
REMARK  150  A    between atoms: _359  and  _360
REMARK  151  A    between atoms: _360  and  _361
REMARK  152  A    between atoms: _365  and  _367
REMARK  153  A    between atoms: _367  and  _368
REMARK  154  A    between atoms: _367  and  _370
REMARK  155  A    between atoms: _370  and  _371
REMARK  156  A    between atoms: _371  and  _372
REMARK  157  A    between atoms: _374  and  _376
REMARK  158  A    between atoms: _376  and  _377
REMARK  159  A    between atoms: _376  and  _379
REMARK  160  A    between atoms: _379  and  _380
REMARK  161  A    between atoms: _383  and  _385
REMARK  162  A    between atoms: _385  and  _386
REMARK  163  A    between atoms: _388  and  _390
REMARK  164  A    between atoms: _390  and  _391
REMARK  165  A    between atoms: _393  and  _395
REMARK  166  A    between atoms: _395  and  _396
REMARK  167  A    between atoms: _395  and  _398
REMARK  168  A    between atoms: _398  and  _399
REMARK  169  A    between atoms: _402  and  _404
REMARK  170  A    between atoms: _404  and  _405
REMARK  171  A    between atoms: _407  and  _409
REMARK  172  A    between atoms: _409  and  _410
REMARK  173  A    between atoms: _412  and  _414
REMARK  174  A    between atoms: _414  and  _415
REMARK  175  A    between atoms: _414  and  _417
REMARK  176  A    between atoms: _417  and  _418
REMARK  177  A    between atoms: _424  and  _426
REMARK  178  A    between atoms: _426  and  _427
REMARK  179  A    between atoms: _426  and  _429
REMARK  180  A    between atoms: _429  and  _430
REMARK  181  A    between atoms: _433  and  _435
REMARK  182  A    between atoms: _435  and  _436
REMARK  183  A    between atoms: _435  and  _438
REMARK  184  A    between atoms: _441  and  _443
REMARK  185  A    between atoms: _443  and  _444
REMARK  186  A    between atoms: _443  and  _446
REMARK  187  A    between atoms: _446  and  _447
REMARK  188  A    between atoms: _450  and  _452
REMARK  189  A    between atoms: _452  and  _453
REMARK  190  A    between atoms: _452  and  _455
REMARK  191  A    between atoms: _455  and  _456
REMARK  192  A    between atoms: _460  and  _461
REMARK  193  A    between atoms: _466  and  _468
REMARK  194  A    between atoms: _468  and  _469
REMARK  195  A    between atoms: _468  and  _471
REMARK  196  A    between atoms: _474  and  _476
REMARK  197  A    between atoms: _476  and  _477
REMARK  198  A    between atoms: _476  and  _479
REMARK  199  A    between atoms: _479  and  _480
REMARK  200  A    between atoms: _485  and  _487
REMARK  201  A    between atoms: _487  and  _488
REMARK  202  A    between atoms: _487  and  _490
REMARK  203  A    between atoms: _490  and  _491
REMARK  204  A    between atoms: _494  and  _496
REMARK  205  A    between atoms: _496  and  _497
REMARK  206  A    between atoms: _496  and  _499
REMARK  207  A    between atoms: _499  and  _500
REMARK  208  A    between atoms: _503  and  _505
REMARK  209  A    between atoms: _505  and  _506
REMARK  210  A    between atoms: _508  and  _510
REMARK  211  A    between atoms: _510  and  _511
REMARK  212  A    between atoms: _510  and  _513
REMARK  213  A    between atoms: _513  and  _514
REMARK  214  A    between atoms: _514  and  _515
REMARK  215  A    between atoms: _515  and  _516
REMARK  216  A    between atoms: _525  and  _527
REMARK  217  A    between atoms: _527  and  _528
REMARK  218  A    between atoms: _527  and  _530
REMARK  219  A    between atoms: _530  and  _531
REMARK                            x       y       z     vdW  Elec       q    Type
REMARK                         _______ _______ _______ _____ _____    ______ ____
ROOT
ATOM      1  CA  VAL A   1       7.926  38.708  11.740  0.00  0.00    +0.133 C 
ENDROOT
BRANCH   1   2
ATOM      2  CB  VAL A   1       8.728  37.887  12.773  0.00  0.00    +0.023 C 
ATOM      3  CG2 VAL A   1       9.153  38.760  13.960  0.00  0.00    +0.002 C 
ATOM      4  CG1 VAL A   1       9.949  37.239  12.092  0.00  0.00    +0.002 C 
ENDBRANCH   1   2
BRANCH   1   5
ATOM      5  N   VAL A   1       8.795  39.669  11.067  0.00  0.00    -0.239 NA
ATOM      6  H   VAL A   1       9.041  40.551  11.559  0.00  0.00    +0.142 HD
ENDBRANCH   1   5
BRANCH   1   7
ATOM      7  C   VAL A   1       6.776  39.442  12.426  0.00  0.00    +0.224 C 
ATOM      8  O   VAL A   1       6.799  40.674  12.545  0.00  0.00    -0.287 OA
ENDBRANCH   1   7
TORSDOF 3
REMARK  Name = ../refined-set-2016/4q1x/4q1x_pocket.pdb
REMARK  219 active torsions:
REMARK  status: ('A' for Active; 'I' for Inactive)
REMARK    1  A    between atoms: _1  and  _3
REMARK    2  A    between atoms: _3  and  _4
REMARK    3  A    between atoms: _3  and  _6
REMARK    4  A    between atoms: _6  and  _7
REMARK    5  A    between atoms: _7  and  _8
REMARK    6  A    between atoms: _8  and  _9
REMARK    7  A    between atoms: _18  and  _20
REMARK    8  A    between atoms: _20  and  _21
REMARK    9  A    between atoms: _20  and  _23
REMARK   10  A    between atoms: _23  and  _24
REMARK   11  A    between atoms: _27  and  _29
REMARK   12  A    between atoms: _29  and  _30
REMARK   13  A    between atoms: _29  and  _32
REMARK   14  A    between atoms: _32  and  _33
REMARK   15  A    between atoms: _36  and  _38
REMARK   16  A    between atoms: _38  and  _39
REMARK   17  A    between atoms: _38  and  _41
REMARK   18  A    between atoms: _41  and  _42
REMARK   19  A    between atoms: _45  and  _47
REMARK   20  A    between atoms: _47  and  _48
REMARK   21  A    between atoms: _47  and  _50
REMARK   22  A    between atoms: _50  and  _51
REMARK   23  A    between atoms: _54  and  _56
REMARK   24  A    between atoms: _56  and  _57
REMARK   25  A    between atoms: _59  and  _61
REMARK   26  A    between atoms: _61  and  _62
REMARK   27  A    between atoms: _65  and  _67
REMARK   28  A    between atoms: _67  and  _68
REMARK   29  A    between atoms: _67  and  _70
REMARK   30  A    between atoms: _70  and  _71
REMARK   31  A    between atoms: _74  and  _76
REMARK   32  A    between atoms: _76  and  _77
REMARK   33  A    between atoms: _76  and  _79
REMARK   34  A    between atoms: _79  and  _80
REMARK   35  A    between atoms: _83  and  _85
REMARK   36  A    between atoms: _85  and  _86
REMARK   37  A    between atoms: _85  and  _88
REMARK   38  A    between atoms: _88  and  _89
REMARK   39  A    between atoms: _92  and  _94
REMARK   40  A    between atoms: _94  and  _95
REMARK   41  A    between atoms: _94  and  _97
REMARK   42  A    between atoms: _97  and  _98
REMARK   43  A    between atoms: _101  and  _103
REMARK   44  A    between atoms: _103  and  _104
REMARK   45  A    between atoms: _103  and  _106
REMARK   46  A    between atoms: _106  and  _107
REMARK   47  A    between atoms: _110  and  _112
REMARK   48  A    between atoms: _112  and  _113
REMARK   49  A    between atoms: _115  and  _117
REMARK   50  A    between atoms: _117  and  _118
REMARK   51  A    between atoms: _120  and  _122
REMARK   52  A    between atoms: _122  and  _123
REMARK   53  A    between atoms: _122  and  _125
REMARK   54  A    between atoms: _125  and  _126
REMARK   55  A    between atoms: _129  and  _131
REMARK   56  A    between atoms: _131  and  _132
REMARK   57  A    between atoms: _134  and  _136
REMARK   58  A    between atoms: _136  and  _137
REMARK   59  A    between atoms: _139  and  _141
REMARK   60  A    between atoms: _141  and  _142
REMARK   61  A    between atoms: _141  and  _144
REMARK   62  A    between atoms: _144  and  _145
REMARK   63  A    between atoms: _148  and  _150
REMARK   64  A    between atoms: _150  and  _151
REMARK   65  A    between atoms: _150  and  _153
REMARK   66  A    between atoms: _153  and  _154
REMARK   67  A    between atoms: _157  and  _159
REMARK   68  A    between atoms: _159  and  _160
REMARK   69  A    between atoms: _159  and  _162
REMARK   70  A    between atoms: _162  and  _163
REMARK   71  A    between atoms: _167  and  _168
REMARK   72  A    between atoms: _173  and  _175
REMARK   73  A    between atoms: _175  and  _176
REMARK   74  A    between atoms: _175  and  _178
REMARK   75  A    between atoms: _181  and  _183
REMARK   76  A    between atoms: _183  and  _184
REMARK   77  A    between atoms: _183  and  _186
REMARK   78  A    between atoms: _186  and  _187
REMARK   79  A    between atoms: _192  and  _194
REMARK   80  A    between atoms: _194  and  _195
REMARK   81  A    between atoms: _194  and  _197
REMARK   82  A    between atoms: _197  and  _198
REMARK   83  A    between atoms: _201  and  _203
REMARK   84  A    between atoms: _203  and  _204
REMARK   85  A    between atoms: _203  and  _206
REMARK   86  A    between atoms: _206  and  _207
REMARK   87  A    between atoms: _210  and  _212
REMARK   88  A    between atoms: _212  and  _213
REMARK   89  A    between atoms: _215  and  _217
REMARK   90  A    between atoms: _217  and  _218
REMARK   91  A    between atoms: _217  and  _220
REMARK   92  A    between atoms: _220  and  _221
REMARK   93  A    between atoms: _221  and  _222
REMARK   94  A    between atoms: _222  and  _223
REMARK   95  A    between atoms: _232  and  _234
REMARK   96  A    between atoms: _234  and  _235
REMARK   97  A    between atoms: _234  and  _237
REMARK   98  A    between atoms: _237  and  _238
REMARK   99  A    between atoms: _243  and  _245
REMARK  100  A    between atoms: _245  and  _246
REMARK  101  A    between atoms: _245  and  _248
REMARK  102  A    between atoms: _248  and  _249
REMARK  103  A    between atoms: _249  and  _250
REMARK  104  A    between atoms: _250  and  _251
REMARK  105  A    between atoms: _260  and  _262
REMARK  106  A    between atoms: _262  and  _263
REMARK  107  A    between atoms: _262  and  _265
REMARK  108  A    between atoms: _265  and  _266
REMARK  109  A    between atoms: _269  and  _271
REMARK  110  A    between atoms: _271  and  _272
REMARK  111  A    between atoms: _271  and  _274
REMARK  112  A    between atoms: _274  and  _275
REMARK  113  A    between atoms: _278  and  _280
REMARK  114  A    between atoms: _280  and  _281
REMARK  115  A    between atoms: _280  and  _283
REMARK  116  A    between atoms: _283  and  _284
REMARK  117  A    between atoms: _287  and  _289
REMARK  118  A    between atoms: _289  and  _290
REMARK  119  A    between atoms: _289  and  _292
REMARK  120  A    between atoms: _292  and  _293
REMARK  121  A    between atoms: _296  and  _298
REMARK  122  A    between atoms: _298  and  _299
REMARK  123  A    between atoms: _301  and  _303
REMARK  124  A    between atoms: _303  and  _304
REMARK  125  A    between atoms: _307  and  _309
REMARK  126  A    between atoms: _309  and  _310
REMARK  127  A    between atoms: _309  and  _312
REMARK  128  A    between atoms: _312  and  _313
REMARK  129  A    between atoms: _316  and  _318
REMARK  130  A    between atoms: _318  and  _319
REMARK  131  A    between atoms: _318  and  _321
REMARK  132  A    between atoms: _321  and  _322
REMARK  133  A    between atoms: _325  and  _327
REMARK  134  A    between atoms: _327  and  _328
REMARK  135  A    between atoms: _327  and  _330
REMARK  136  A    between atoms: _330  and  _331
REMARK  137  A    between atoms: _334  and  _336
REMARK  138  A    between atoms: _336  and  _337
REMARK  139  A    between atoms: _336  and  _339
REMARK  140  A    between atoms: _339  and  _340
REMARK  141  A    between atoms: _343  and  _345
REMARK  142  A    between atoms: _345  and  _346
REMARK  143  A    between atoms: _345  and  _348
REMARK  144  A    between atoms: _348  and  _349
REMARK  145  A    between atoms: _352  and  _354
REMARK  146  A    between atoms: _354  and  _355
REMARK  147  A    between atoms: _354  and  _357
REMARK  148  A    between atoms: _357  and  _358
REMARK  149  A    between atoms: _358  and  _359
REMARK  150  A    between atoms: _359  and  _360
REMARK  151  A    between atoms: _360  and  _361
REMARK  152  A    between atoms: _365  and  _367
REMARK  153  A    between atoms: _367  and  _368
REMARK  154  A    between atoms: _367  and  _370
REMARK  155  A    between atoms: _370  and  _371
REMARK  156  A    between atoms: _371  and  _372
REMARK  157  A    between atoms: _374  and  _376
REMARK  158  A    between atoms: _376  and  _377
REMARK  159  A    between atoms: _376  and  _379
REMARK  160  A    between atoms: _379  and  _380
REMARK  161  A    between atoms: _383  and  _385
REMARK  162  A    between atoms: _385  and  _386
REMARK  163  A    between atoms: _388  and  _390
REMARK  164  A    between atoms: _390  and  _391
REMARK  165  A    between atoms: _393  and  _395
REMARK  166  A    between atoms: _395  and  _396
REMARK  167  A    between atoms: _395  and  _398
REMARK  168  A    between atoms: _398  and  _399
REMARK  169  A    between atoms: _402  and  _404
REMARK  170  A    between atoms: _404  and  _405
REMARK  171  A    between atoms: _407  and  _409
REMARK  172  A    between atoms: _409  and  _410
REMARK  173  A    between atoms: _412  and  _414
REMARK  174  A    between atoms: _414  and  _415
REMARK  175  A    between atoms: _414  and  _417
REMARK  176  A    between atoms: _417  and  _418
REMARK  177  A    between atoms: _424  and  _426
REMARK  178  A    between atoms: _426  and  _427
REMARK  179  A    between atoms: _426  and  _429
REMARK  180  A    between atoms: _429  and  _430
REMARK  181  A    between atoms: _433  and  _435
REMARK  182  A    between atoms: _435  and  _436
REMARK  183  A    between atoms: _435  and  _438
REMARK  184  A    between atoms: _441  and  _443
REMARK  185  A    between atoms: _443  and  _444
REMARK  186  A    between atoms: _443  and  _446
REMARK  187  A    between atoms: _446  and  _447
REMARK  188  A    between atoms: _450  and  _452
REMARK  189  A    between atoms: _452  and  _453
REMARK  190  A    between atoms: _452  and  _455
REMARK  191  A    between atoms: _455  and  _456
REMARK  192  A    between atoms: _460  and  _461
REMARK  193  A    between atoms: _466  and  _468
REMARK  194  A    between atoms: _468  and  _469
REMARK  195  A    between atoms: _468  and  _471
REMARK  196  A    between atoms: _474  and  _476
REMARK  197  A    between atoms: _476  and  _477
REMARK  198  A    between atoms: _476  and  _479
REMARK  199  A    between atoms: _479  and  _480
REMARK  200  A    between atoms: _485  and  _487
REMARK  201  A    between atoms: _487  and  _488
REMARK  202  A    between atoms: _487  and  _490
REMARK  203  A    between atoms: _490  and  _491
REMARK  204  A    between atoms: _494  and  _496
REMARK  205  A    between atoms: _496  and  _497
REMARK  206  A    between atoms: _496  and  _499
REMARK  207  A    between atoms: _499  and  _500
REMARK  208  A    between atoms: _503  and  _505
REMARK  209  A    between atoms: _505  and  _506
REMARK  210  A    between atoms: _508  and  _510
REMARK  211  A    between atoms: _510  and  _511
REMARK  212  A    between atoms: _510  and  _513
REMARK  213  A    between atoms: _513  and  _514
REMARK  214  A    between atoms: _514  and  _515
REMARK  215  A    between atoms: _515  and  _516
REMARK  216  A    between atoms: _525  and  _527
REMARK  217  A    between atoms: _527  and  _528
REMARK  218  A    between atoms: _527  and  _530
REMARK  219  A    between atoms: _530  and  _531
REMARK                            x       y       z     vdW  Elec       q    Type
REMARK                         _______ _______ _______ _____ _____    ______ ____
ROOT
ATOM      1  CA  LEU A   1       6.846  35.176  16.551  0.00  0.00    +0.133 C 
ENDROOT
BRANCH   1   2
ATOM      2  N   LEU A   1       6.602  34.412  17.754  0.00  0.00    -0.239 NA
ATOM      3  H   LEU A   1       7.382  33.856  18.158  0.00  0.00    +0.142 HD
ENDBRANCH   1   2
BRANCH   1   4
ATOM      4  C   LEU A   1       6.480  34.290  15.366  0.00  0.00    +0.224 C 
ATOM      5  O   LEU A   1       6.723  33.073  15.378  0.00  0.00    -0.287 OA
ENDBRANCH   1   4
BRANCH   1   6
ATOM      6  CB  LEU A   1       8.318  35.584  16.461  0.00  0.00    +0.025 C 
BRANCH   6   7
ATOM      7  CG  LEU A   1       8.952  36.282  17.668  0.00  0.00    +0.002 C 
ATOM      8  CD2 LEU A   1       8.260  37.598  17.954  0.00  0.00    +0.000 C 
ATOM      9  CD1 LEU A   1      10.457  36.496  17.422  0.00  0.00    +0.000 C 
ENDBRANCH   6   7
ENDBRANCH   1   6
TORSDOF 4
REMARK  Name = ../refined-set-2016/4q1x/4q1x_pocket.pdb
REMARK  219 active torsions:
REMARK  status: ('A' for Active; 'I' for Inactive)
REMARK    1  A    between atoms: _1  and  _3
REMARK    2  A    between atoms: _3  and  _4
REMARK    3  A    between atoms: _3  and  _6
REMARK    4  A    between atoms: _6  and  _7
REMARK    5  A    between atoms: _7  and  _8
REMARK    6  A    between atoms: _8  and  _9
REMARK    7  A    between atoms: _18  and  _20
REMARK    8  A    between atoms: _20  and  _21
REMARK    9  A    between atoms: _20  and  _23
REMARK   10  A    between atoms: _23  and  _24
REMARK   11  A    between atoms: _27  and  _29
REMARK   12  A    between atoms: _29  and  _30
REMARK   13  A    between atoms: _29  and  _32
REMARK   14  A    between atoms: _32  and  _33
REMARK   15  A    between atoms: _36  and  _38
REMARK   16  A    between atoms: _38  and  _39
REMARK   17  A    between atoms: _38  and  _41
REMARK   18  A    between atoms: _41  and  _42
REMARK   19  A    between atoms: _45  and  _47
REMARK   20  A    between atoms: _47  and  _48
REMARK   21  A    between atoms: _47  and  _50
REMARK   22  A    between atoms: _50  and  _51
REMARK   23  A    between atoms: _54  and  _56
REMARK   24  A    between atoms: _56  and  _57
REMARK   25  A    between atoms: _59  and  _61
REMARK   26  A    between atoms: _61  and  _62
REMARK   27  A    between atoms: _65  and  _67
REMARK   28  A    between atoms: _67  and  _68
REMARK   29  A    between atoms: _67  and  _70
REMARK   30  A    between atoms: _70  and  _71
REMARK   31  A    between atoms: _74  and  _76
REMARK   32  A    between atoms: _76  and  _77
REMARK   33  A    between atoms: _76  and  _79
REMARK   34  A    between atoms: _79  and  _80
REMARK   35  A    between atoms: _83  and  _85
REMARK   36  A    between atoms: _85  and  _86
REMARK   37  A    between atoms: _85  and  _88
REMARK   38  A    between atoms: _88  and  _89
REMARK   39  A    between atoms: _92  and  _94
REMARK   40  A    between atoms: _94  and  _95
REMARK   41  A    between atoms: _94  and  _97
REMARK   42  A    between atoms: _97  and  _98
REMARK   43  A    between atoms: _101  and  _103
REMARK   44  A    between atoms: _103  and  _104
REMARK   45  A    between atoms: _103  and  _106
REMARK   46  A    between atoms: _106  and  _107
REMARK   47  A    between atoms: _110  and  _112
REMARK   48  A    between atoms: _112  and  _113
REMARK   49  A    between atoms: _115  and  _117
REMARK   50  A    between atoms: _117  and  _118
REMARK   51  A    between atoms: _120  and  _122
REMARK   52  A    between atoms: _122  and  _123
REMARK   53  A    between atoms: _122  and  _125
REMARK   54  A    between atoms: _125  and  _126
REMARK   55  A    between atoms: _129  and  _131
REMARK   56  A    between atoms: _131  and  _132
REMARK   57  A    between atoms: _134  and  _136
REMARK   58  A    between atoms: _136  and  _137
REMARK   59  A    between atoms: _139  and  _141
REMARK   60  A    between atoms: _141  and  _142
REMARK   61  A    between atoms: _141  and  _144
REMARK   62  A    between atoms: _144  and  _145
REMARK   63  A    between atoms: _148  and  _150
REMARK   64  A    between atoms: _150  and  _151
REMARK   65  A    between atoms: _150  and  _153
REMARK   66  A    between atoms: _153  and  _154
REMARK   67  A    between atoms: _157  and  _159
REMARK   68  A    between atoms: _159  and  _160
REMARK   69  A    between atoms: _159  and  _162
REMARK   70  A    between atoms: _162  and  _163
REMARK   71  A    between atoms: _167  and  _168
REMARK   72  A    between atoms: _173  and  _175
REMARK   73  A    between atoms: _175  and  _176
REMARK   74  A    between atoms: _175  and  _178
REMARK   75  A    between atoms: _181  and  _183
REMARK   76  A    between atoms: _183  and  _184
REMARK   77  A    between atoms: _183  and  _186
REMARK   78  A    between atoms: _186  and  _187
REMARK   79  A    between atoms: _192  and  _194
REMARK   80  A    between atoms: _194  and  _195
REMARK   81  A    between atoms: _194  and  _197
REMARK   82  A    between atoms: _197  and  _198
REMARK   83  A    between atoms: _201  and  _203
REMARK   84  A    between atoms: _203  and  _204
REMARK   85  A    between atoms: _203  and  _206
REMARK   86  A    between atoms: _206  and  _207
REMARK   87  A    between atoms: _210  and  _212
REMARK   88  A    between atoms: _212  and  _213
REMARK   89  A    between atoms: _215  and  _217
REMARK   90  A    between atoms: _217  and  _218
REMARK   91  A    between atoms: _217  and  _220
REMARK   92  A    between atoms: _220  and  _221
REMARK   93  A    between atoms: _221  and  _222
REMARK   94  A    between atoms: _222  and  _223
REMARK   95  A    between atoms: _232  and  _234
REMARK   96  A    between atoms: _234  and  _235
REMARK   97  A    between atoms: _234  and  _237
REMARK   98  A    between atoms: _237  and  _238
REMARK   99  A    between atoms: _243  and  _245
REMARK  100  A    between atoms: _245  and  _246
REMARK  101  A    between atoms: _245  and  _248
REMARK  102  A    between atoms: _248  and  _249
REMARK  103  A    between atoms: _249  and  _250
REMARK  104  A    between atoms: _250  and  _251
REMARK  105  A    between atoms: _260  and  _262
REMARK  106  A    between atoms: _262  and  _263
REMARK  107  A    between atoms: _262  and  _265
REMARK  108  A    between atoms: _265  and  _266
REMARK  109  A    between atoms: _269  and  _271
REMARK  110  A    between atoms: _271  and  _272
REMARK  111  A    between atoms: _271  and  _274
REMARK  112  A    between atoms: _274  and  _275
REMARK  113  A    between atoms: _278  and  _280
REMARK  114  A    between atoms: _280  and  _281
REMARK  115  A    between atoms: _280  and  _283
REMARK  116  A    between atoms: _283  and  _284
REMARK  117  A    between atoms: _287  and  _289
REMARK  118  A    between atoms: _289  and  _290
REMARK  119  A    between atoms: _289  and  _292
REMARK  120  A    between atoms: _292  and  _293
REMARK  121  A    between atoms: _296  and  _298
REMARK  122  A    between atoms: _298  and  _299
REMARK  123  A    between atoms: _301  and  _303
REMARK  124  A    between atoms: _303  and  _304
REMARK  125  A    between atoms: _307  and  _309
REMARK  126  A    between atoms: _309  and  _310
REMARK  127  A    between atoms: _309  and  _312
REMARK  128  A    between atoms: _312  and  _313
REMARK  129  A    between atoms: _316  and  _318
REMARK  130  A    between atoms: _318  and  _319
REMARK  131  A    between atoms: _318  and  _321
REMARK  132  A    between atoms: _321  and  _322
REMARK  133  A    between atoms: _325  and  _327
REMARK  134  A    between atoms: _327  and  _328
REMARK  135  A    between atoms: _327  and  _330
REMARK  136  A    between atoms: _330  and  _331
REMARK  137  A    between atoms: _334  and  _336
REMARK  138  A    between atoms: _336  and  _337
REMARK  139  A    between atoms: _336  and  _339
REMARK  140  A    between atoms: _339  and  _340
REMARK  141  A    between atoms: _343  and  _345
REMARK  142  A    between atoms: _345  and  _346
REMARK  143  A    between atoms: _345  and  _348
REMARK  144  A    between atoms: _348  and  _349
REMARK  145  A    between atoms: _352  and  _354
REMARK  146  A    between atoms: _354  and  _355
REMARK  147  A    between atoms: _354  and  _357
REMARK  148  A    between atoms: _357  and  _358
REMARK  149  A    between atoms: _358  and  _359
REMARK  150  A    between atoms: _359  and  _360
REMARK  151  A    between atoms: _360  and  _361
REMARK  152  A    between atoms: _365  and  _367
REMARK  153  A    between atoms: _367  and  _368
REMARK  154  A    between atoms: _367  and  _370
REMARK  155  A    between atoms: _370  and  _371
REMARK  156  A    between atoms: _371  and  _372
REMARK  157  A    between atoms: _374  and  _376
REMARK  158  A    between atoms: _376  and  _377
REMARK  159  A    between atoms: _376  and  _379
REMARK  160  A    between atoms: _379  and  _380
REMARK  161  A    between atoms: _383  and  _385
REMARK  162  A    between atoms: _385  and  _386
REMARK  163  A    between atoms: _388  and  _390
REMARK  164  A    between atoms: _390  and  _391
REMARK  165  A    between atoms: _393  and  _395
REMARK  166  A    between atoms: _395  and  _396
REMARK  167  A    between atoms: _395  and  _398
REMARK  168  A    between atoms: _398  and  _399
REMARK  169  A    between atoms: _402  and  _404
REMARK  170  A    between atoms: _404  and  _405
REMARK  171  A    between atoms: _407  and  _409
REMARK  172  A    between atoms: _409  and  _410
REMARK  173  A    between atoms: _412  and  _414
REMARK  174  A    between atoms: _414  and  _415
REMARK  175  A    between atoms: _414  and  _417
REMARK  176  A    between atoms: _417  and  _418
REMARK  177  A    between atoms: _424  and  _426
REMARK  178  A    between atoms: _426  and  _427
REMARK  179  A    between atoms: _426  and  _429
REMARK  180  A    between atoms: _429  and  _430
REMARK  181  A    between atoms: _433  and  _435
REMARK  182  A    between atoms: _435  and  _436
REMARK  183  A    between atoms: _435  and  _438
REMARK  184  A    between atoms: _441  and  _443
REMARK  185  A    between atoms: _443  and  _444
REMARK  186  A    between atoms: _443  and  _446
REMARK  187  A    between atoms: _446  and  _447
REMARK  188  A    between atoms: _450  and  _452
REMARK  189  A    between atoms: _452  and  _453
REMARK  190  A    between atoms: _452  and  _455
REMARK  191  A    between atoms: _455  and  _456
REMARK  192  A    between atoms: _460  and  _461
REMARK  193  A    between atoms: _466  and  _468
REMARK  194  A    between atoms: _468  and  _469
REMARK  195  A    between atoms: _468  and  _471
REMARK  196  A    between atoms: _474  and  _476
REMARK  197  A    between atoms: _476  and  _477
REMARK  198  A    between atoms: _476  and  _479
REMARK  199  A    between atoms: _479  and  _480
REMARK  200  A    between atoms: _485  and  _487
REMARK  201  A    between atoms: _487  and  _488
REMARK  202  A    between atoms: _487  and  _490
REMARK  203  A    between atoms: _490  and  _491
REMARK  204  A    between atoms: _494  and  _496
REMARK  205  A    between atoms: _496  and  _497
REMARK  206  A    between atoms: _496  and  _499
REMARK  207  A    between atoms: _499  and  _500
REMARK  208  A    between atoms: _503  and  _505
REMARK  209  A    between atoms: _505  and  _506
REMARK  210  A    between atoms: _508  and  _510
REMARK  211  A    between atoms: _510  and  _511
REMARK  212  A    between atoms: _510  and  _513
REMARK  213  A    between atoms: _513  and  _514
REMARK  214  A    between atoms: _514  and  _515
REMARK  215  A    between atoms: _515  and  _516
REMARK  216  A    between atoms: _525  and  _527
REMARK  217  A    between atoms: _527  and  _528
REMARK  218  A    between atoms: _527  and  _530
REMARK  219  A    between atoms: _530  and  _531
REMARK                            x       y       z     vdW  Elec       q    Type
REMARK                         _______ _______ _______ _____ _____    ______ ____
ROOT
ATOM      1  C   ILE A   5      11.317  27.486  17.817  0.00  0.00    +0.241 C 
ATOM      2  N   ILE A   6      11.552  26.607  18.792  0.00  0.00    -0.297 N 
ATOM      3  H   ILE A   6      12.027  25.710  18.566  0.00  0.00    +0.150 HD
ATOM      4  O   ILE A   5      10.629  28.499  17.964  0.00  0.00    -0.273 OA
ENDROOT
BRANCH   2   5
ATOM      5  CA  ILE A   6      11.158  26.877  20.164  0.00  0.00    +0.149 C 
BRANCH   5   6
ATOM      6  C   ILE A   6      12.353  27.545  20.846  0.00  0.00    +0.241 C 
ATOM      7  N   GLY A   7      12.177  28.811  21.219  0.00  0.00    -0.295 N 
ATOM      8  H   GLY A   7      11.243  29.249  21.084  0.00  0.00    +0.150 HD
ATOM      9  O   ILE A   6      13.413  26.923  21.028  0.00  0.00    -0.273 OA
BRANCH   7  10
ATOM     10  CA  GLY A   7      13.251  29.607  21.812  0.00  0.00    +0.176 C 
BRANCH  10  11
ATOM     11  C   GLY A   7      13.231  29.613  23.326  0.00  0.00    +0.243 C 
ATOM     12  O   GLY A   7      12.345  29.022  23.953  0.00  0.00    -0.273 OA
ATOM     13  N   ARG A   8      14.190  30.317  23.920  0.00  0.00    -0.297 N 
ATOM     14  H   ARG A   8      14.831  30.899  23.343  0.00  0.00    +0.150 HD
BRANCH  13  15
ATOM     15  CA  ARG A   8      14.356  30.285  25.367  0.00  0.00    +0.149 C 
BRANCH  15  16
ATOM     16  C   ARG A   8      13.099  30.716  26.119  0.00  0.00    +0.241 C 
ATOM     17  O   ARG A   8      12.835  30.202  27.196  0.00  0.00    -0.273 OA
ATOM     18  N   ASN A   9      12.325  31.647  25.570  0.00  0.00    -0.298 N 
ATOM     19  H   ASN A   9      12.566  32.016  24.628  0.00  0.00    +0.150 HD
BRANCH  18  20
ATOM     20  CA  ASN A   9      11.139  32.166  26.260  0.00  0.00    +0.146 C 
BRANCH  20  21
ATOM     21  C   ASN A   9      10.160  31.057  26.650  0.00  0.00    +0.227 C 
ATOM     22  O   ASN A   9       9.519  31.145  27.681  0.00  0.00    -0.286 OA
ENDBRANCH  20  21
BRANCH  20  23
ATOM     23  CB  ASN A   9      10.439  33.223  25.411  0.00  0.00    +0.112 C 
BRANCH  23  24
ATOM     24  CG  ASN A   9       9.695  32.631  24.233  0.00  0.00    +0.222 C 
ATOM     25  ND2 ASN A   9       8.394  32.934  24.149  0.00  0.00    -0.329 N 
ATOM     26 HD21 ASN A   9       7.950  33.527  24.879  0.00  0.00    +0.145 HD
ATOM     27 HD22 ASN A   9       7.827  32.577  23.353  0.00  0.00    +0.145 HD
ATOM     28  OD1 ASN A   9      10.279  31.930  23.394  0.00  0.00    -0.275 OA
ENDBRANCH  23  24
ENDBRANCH  20  23
ENDBRANCH  18  20
ENDBRANCH  15  16
BRANCH  15  29
ATOM     29  CB  ARG A   8      15.549  31.115  25.811  0.00  0.00    +0.033 C 
BRANCH  29  30
ATOM     30  CG  ARG A   8      16.897  30.541  25.348  0.00  0.00    +0.045 C 
BRANCH  30  31
ATOM     31  CD  ARG A   8      18.094  31.336  25.881  0.00  0.00    +0.174 C 
BRANCH  31  32
ATOM     32  NE  ARG A   8      18.094  32.742  25.488  0.00  0.00    -0.265 N 
ATOM     33  CZ  ARG A   8      17.658  33.759  26.228  0.00  0.00    +0.342 C 
ATOM     34  NH2 ARG A   8      17.135  33.570  27.433  0.00  0.00    -0.292 N 
ATOM     35 HH21 ARG A   8      16.802  34.384  27.989  0.00  0.00    +0.255 HD
ATOM     36 HH22 ARG A   8      17.058  32.608  27.821  0.00  0.00    +0.255 HD
ATOM     37  NH1 ARG A   8      17.716  34.992  25.726  0.00  0.00    -0.292 N 
ATOM     38 HH11 ARG A   8      17.380  35.799  26.289  0.00  0.00    +0.255 HD
ATOM     39 HH12 ARG A   8      18.097  35.147  24.771  0.00  0.00    +0.255 HD
ATOM     40  HE  ARG A   8      18.468  32.970  24.545  0.00  0.00    +0.259 HD
ENDBRANCH  31  32
ENDBRANCH  30  31
ENDBRANCH  29  30
ENDBRANCH  15  29
ENDBRANCH  13  15
ENDBRANCH  10  11
ENDBRANCH   7  10
ENDBRANCH   5   6
BRANCH   5  41
ATOM     41  CB  ILE A   6      10.728  25.603  20.922  0.00  0.00    +0.027 C 
ATOM     42  CG2 ILE A   6      10.311  25.959  22.342  0.00  0.00    +0.002 C 
BRANCH  41  43
ATOM     43  CG1 ILE A   6       9.619  24.853  20.163  0.00  0.00    +0.002 C 
ATOM     44  CD1 ILE A   6       8.344  25.646  19.865  0.00  0.00    +0.000 C 
ENDBRANCH  41  43
ENDBRANCH   5  41
ENDBRANCH   2   5
BRANCH   1  45
ATOM     45  CA  ILE A   5      11.961  27.187  16.475  0.00  0.00    +0.149 C 
BRANCH  45  47
ATOM     46  C   ASN A   4      10.899  26.024  14.622  0.00  0.00    +0.241 C 
ATOM     47  N   ILE A   5      10.938  27.062  15.448  0.00  0.00    -0.297 N 
ATOM     48  H   ILE A   5      10.217  27.807  15.359  0.00  0.00    +0.150 HD
ATOM     49  O   ASN A   4      11.589  25.008  14.769  0.00  0.00    -0.273 OA
BRANCH  46  50
ATOM     50  CA  ASN A   4       9.912  26.122  13.476  0.00  0.00    +0.158 C 
BRANCH  50  52
ATOM     51  C   VAL A   3      11.423  26.436  11.581  0.00  0.00    +0.241 C 
ATOM     52  N   ASN A   4      10.618  25.643  12.279  0.00  0.00    -0.297 N 
ATOM     53  H   ASN A   4      10.484  24.659  11.971  0.00  0.00    +0.150 HD
ATOM     54  O   VAL A   3      11.546  27.642  11.809  0.00  0.00    -0.273 OA
BRANCH  51  55
ATOM     55  CA  VAL A   3      12.190  25.776  10.443  0.00  0.00    +0.149 C 
BRANCH  55  57
ATOM     56  C   PRO A   2      12.232  26.498   8.119  0.00  0.00    +0.241 C 
ATOM     57  N   VAL A   3      12.418  26.766   9.405  0.00  0.00    -0.297 N 
ATOM     58  H   VAL A   3      12.738  27.717   9.679  0.00  0.00    +0.150 HD
ATOM     59  O   PRO A   2      11.861  25.396   7.698  0.00  0.00    -0.273 OA
BRANCH  56  66
ATOM     60  C   THR A   1      11.426  29.578   8.076  0.00  0.00    +0.244 C 
ATOM     61  O   THR A   1      10.323  29.088   7.855  0.00  0.00    -0.273 OA
ATOM     62  N   PRO A   2      12.567  28.955   7.730  0.00  0.00    -0.272 N 
ATOM     63  CD  PRO A   2      13.936  29.480   7.873  0.00  0.00    +0.094 C 
ATOM     64  CG  PRO A   2      14.795  28.316   7.543  0.00  0.00    +0.024 C 
ATOM     65  CB  PRO A   2      13.994  27.441   6.650  0.00  0.00    +0.031 C 
ATOM     66  CA  PRO A   2      12.552  27.621   7.142  0.00  0.00    +0.152 C 
BRANCH  60  67
ATOM     67  CA  THR A   1      11.537  30.937   8.774  0.00  0.00    +0.172 C 
BRANCH  67  68
ATOM     68  N   THR A   1      10.449  31.797   8.351  0.00  0.00    -0.236 NA
ATOM     69  H   THR A   1       9.565  31.787   8.898  0.00  0.00    +0.142 HD
ENDBRANCH  67  68
BRANCH  67  70
ATOM     70  CB  THR A   1      11.501  30.736  10.300  0.00  0.00    +0.135 C 
ATOM     71  CG2 THR A   1      10.148  30.160  10.725  0.00  0.00    +0.034 C 
BRANCH  70  72
ATOM     72  OG1 THR A   1      12.567  29.859  10.681  0.00  0.00    -0.383 OA
ATOM     73  HG1 THR A   1      12.454  28.987  10.226  0.00  0.00    +0.210 HD
ENDBRANCH  70  72
ENDBRANCH  67  70
ENDBRANCH  60  67
ENDBRANCH  56  66
ENDBRANCH  55  57
BRANCH  55  74
ATOM     74  CB  VAL A   3      13.523  25.213  10.967  0.00  0.00    +0.027 C 
ATOM     75  CG2 VAL A   3      14.406  26.334  11.475  0.00  0.00    +0.002 C 
ATOM     76  CG1 VAL A   3      14.229  24.419   9.869  0.00  0.00    +0.002 C 
ENDBRANCH  55  74
ENDBRANCH  51  55
ENDBRANCH  50  52
BRANCH  50  77
ATOM     77  CB  ASN A   4       8.700  25.249  13.818  0.00  0.00    +0.114 C 
BRANCH  77  78
ATOM     78  CG  ASN A   4       7.597  25.341  12.795  0.00  0.00    +0.222 C 
ATOM     79  OD1 ASN A   4       7.142  26.434  12.451  0.00  0.00    -0.275 OA
ATOM     80  ND2 ASN A   4       7.147  24.192  12.304  0.00  0.00    -0.329 N 
ATOM     81 HD21 ASN A   4       7.561  23.293  12.623  0.00  0.00    +0.145 HD
ATOM     82 HD22 ASN A   4       6.381  24.192  11.600  0.00  0.00    +0.145 HD
ENDBRANCH  77  78
ENDBRANCH  50  77
ENDBRANCH  46  50
ENDBRANCH  45  47
BRANCH  45  83
ATOM     83  CB  ILE A   5      12.935  28.312  16.117  0.00  0.00    +0.027 C 
ATOM     84  CG2 ILE A   5      13.867  28.646  17.296  0.00  0.00    +0.002 C 
BRANCH  83  85
ATOM     85  CG1 ILE A   5      13.737  27.945  14.862  0.00  0.00    +0.002 C 
ATOM     86  CD1 ILE A   5      14.481  29.118  14.248  0.00  0.00    +0.000 C 
ENDBRANCH  83  85
ENDBRANCH  45  83
ENDBRANCH   1  45
TORSDOF 32
REMARK  Name = ../refined-set-2016/4q1x/4q1x_pocket.pdb
REMARK  219 active torsions:
REMARK  status: ('A' for Active; 'I' for Inactive)
REMARK    1  A    between atoms: _1  and  _3
REMARK    2  A    between atoms: _3  and  _4
REMARK    3  A    between atoms: _3  and  _6
REMARK    4  A    between atoms: _6  and  _7
REMARK    5  A    between atoms: _7  and  _8
REMARK    6  A    between atoms: _8  and  _9
REMARK    7  A    between atoms: _18  and  _20
REMARK    8  A    between atoms: _20  and  _21
REMARK    9  A    between atoms: _20  and  _23
REMARK   10  A    between atoms: _23  and  _24
REMARK   11  A    between atoms: _27  and  _29
REMARK   12  A    between atoms: _29  and  _30
REMARK   13  A    between atoms: _29  and  _32
REMARK   14  A    between atoms: _32  and  _33
REMARK   15  A    between atoms: _36  and  _38
REMARK   16  A    between atoms: _38  and  _39
REMARK   17  A    between atoms: _38  and  _41
REMARK   18  A    between atoms: _41  and  _42
REMARK   19  A    between atoms: _45  and  _47
REMARK   20  A    between atoms: _47  and  _48
REMARK   21  A    between atoms: _47  and  _50
REMARK   22  A    between atoms: _50  and  _51
REMARK   23  A    between atoms: _54  and  _56
REMARK   24  A    between atoms: _56  and  _57
REMARK   25  A    between atoms: _59  and  _61
REMARK   26  A    between atoms: _61  and  _62
REMARK   27  A    between atoms: _65  and  _67
REMARK   28  A    between atoms: _67  and  _68
REMARK   29  A    between atoms: _67  and  _70
REMARK   30  A    between atoms: _70  and  _71
REMARK   31  A    between atoms: _74  and  _76
REMARK   32  A    between atoms: _76  and  _77
REMARK   33  A    between atoms: _76  and  _79
REMARK   34  A    between atoms: _79  and  _80
REMARK   35  A    between atoms: _83  and  _85
REMARK   36  A    between atoms: _85  and  _86
REMARK   37  A    between atoms: _85  and  _88
REMARK   38  A    between atoms: _88  and  _89
REMARK   39  A    between atoms: _92  and  _94
REMARK   40  A    between atoms: _94  and  _95
REMARK   41  A    between atoms: _94  and  _97
REMARK   42  A    between atoms: _97  and  _98
REMARK   43  A    between atoms: _101  and  _103
REMARK   44  A    between atoms: _103  and  _104
REMARK   45  A    between atoms: _103  and  _106
REMARK   46  A    between atoms: _106  and  _107
REMARK   47  A    between atoms: _110  and  _112
REMARK   48  A    between atoms: _112  and  _113
REMARK   49  A    between atoms: _115  and  _117
REMARK   50  A    between atoms: _117  and  _118
REMARK   51  A    between atoms: _120  and  _122
REMARK   52  A    between atoms: _122  and  _123
REMARK   53  A    between atoms: _122  and  _125
REMARK   54  A    between atoms: _125  and  _126
REMARK   55  A    between atoms: _129  and  _131
REMARK   56  A    between atoms: _131  and  _132
REMARK   57  A    between atoms: _134  and  _136
REMARK   58  A    between atoms: _136  and  _137
REMARK   59  A    between atoms: _139  and  _141
REMARK   60  A    between atoms: _141  and  _142
REMARK   61  A    between atoms: _141  and  _144
REMARK   62  A    between atoms: _144  and  _145
REMARK   63  A    between atoms: _148  and  _150
REMARK   64  A    between atoms: _150  and  _151
REMARK   65  A    between atoms: _150  and  _153
REMARK   66  A    between atoms: _153  and  _154
REMARK   67  A    between atoms: _157  and  _159
REMARK   68  A    between atoms: _159  and  _160
REMARK   69  A    between atoms: _159  and  _162
REMARK   70  A    between atoms: _162  and  _163
REMARK   71  A    between atoms: _167  and  _168
REMARK   72  A    between atoms: _173  and  _175
REMARK   73  A    between atoms: _175  and  _176
REMARK   74  A    between atoms: _175  and  _178
REMARK   75  A    between atoms: _181  and  _183
REMARK   76  A    between atoms: _183  and  _184
REMARK   77  A    between atoms: _183  and  _186
REMARK   78  A    between atoms: _186  and  _187
REMARK   79  A    between atoms: _192  and  _194
REMARK   80  A    between atoms: _194  and  _195
REMARK   81  A    between atoms: _194  and  _197
REMARK   82  A    between atoms: _197  and  _198
REMARK   83  A    between atoms: _201  and  _203
REMARK   84  A    between atoms: _203  and  _204
REMARK   85  A    between atoms: _203  and  _206
REMARK   86  A    between atoms: _206  and  _207
REMARK   87  A    between atoms: _210  and  _212
REMARK   88  A    between atoms: _212  and  _213
REMARK   89  A    between atoms: _215  and  _217
REMARK   90  A    between atoms: _217  and  _218
REMARK   91  A    between atoms: _217  and  _220
REMARK   92  A    between atoms: _220  and  _221
REMARK   93  A    between atoms: _221  and  _222
REMARK   94  A    between atoms: _222  and  _223
REMARK   95  A    between atoms: _232  and  _234
REMARK   96  A    between atoms: _234  and  _235
REMARK   97  A    between atoms: _234  and  _237
REMARK   98  A    between atoms: _237  and  _238
REMARK   99  A    between atoms: _243  and  _245
REMARK  100  A    between atoms: _245  and  _246
REMARK  101  A    between atoms: _245  and  _248
REMARK  102  A    between atoms: _248  and  _249
REMARK  103  A    between atoms: _249  and  _250
REMARK  104  A    between atoms: _250  and  _251
REMARK  105  A    between atoms: _260  and  _262
REMARK  106  A    between atoms: _262  and  _263
REMARK  107  A    between atoms: _262  and  _265
REMARK  108  A    between atoms: _265  and  _266
REMARK  109  A    between atoms: _269  and  _271
REMARK  110  A    between atoms: _271  and  _272
REMARK  111  A    between atoms: _271  and  _274
REMARK  112  A    between atoms: _274  and  _275
REMARK  113  A    between atoms: _278  and  _280
REMARK  114  A    between atoms: _280  and  _281
REMARK  115  A    between atoms: _280  and  _283
REMARK  116  A    between atoms: _283  and  _284
REMARK  117  A    between atoms: _287  and  _289
REMARK  118  A    between atoms: _289  and  _290
REMARK  119  A    between atoms: _289  and  _292
REMARK  120  A    between atoms: _292  and  _293
REMARK  121  A    between atoms: _296  and  _298
REMARK  122  A    between atoms: _298  and  _299
REMARK  123  A    between atoms: _301  and  _303
REMARK  124  A    between atoms: _303  and  _304
REMARK  125  A    between atoms: _307  and  _309
REMARK  126  A    between atoms: _309  and  _310
REMARK  127  A    between atoms: _309  and  _312
REMARK  128  A    between atoms: _312  and  _313
REMARK  129  A    between atoms: _316  and  _318
REMARK  130  A    between atoms: _318  and  _319
REMARK  131  A    between atoms: _318  and  _321
REMARK  132  A    between atoms: _321  and  _322
REMARK  133  A    between atoms: _325  and  _327
REMARK  134  A    between atoms: _327  and  _328
REMARK  135  A    between atoms: _327  and  _330
REMARK  136  A    between atoms: _330  and  _331
REMARK  137  A    between atoms: _334  and  _336
REMARK  138  A    between atoms: _336  and  _337
REMARK  139  A    between atoms: _336  and  _339
REMARK  140  A    between atoms: _339  and  _340
REMARK  141  A    between atoms: _343  and  _345
REMARK  142  A    between atoms: _345  and  _346
REMARK  143  A    between atoms: _345  and  _348
REMARK  144  A    between atoms: _348  and  _349
REMARK  145  A    between atoms: _352  and  _354
REMARK  146  A    between atoms: _354  and  _355
REMARK  147  A    between atoms: _354  and  _357
REMARK  148  A    between atoms: _357  and  _358
REMARK  149  A    between atoms: _358  and  _359
REMARK  150  A    between atoms: _359  and  _360
REMARK  151  A    between atoms: _360  and  _361
REMARK  152  A    between atoms: _365  and  _367
REMARK  153  A    between atoms: _367  and  _368
REMARK  154  A    between atoms: _367  and  _370
REMARK  155  A    between atoms: _370  and  _371
REMARK  156  A    between atoms: _371  and  _372
REMARK  157  A    between atoms: _374  and  _376
REMARK  158  A    between atoms: _376  and  _377
REMARK  159  A    between atoms: _376  and  _379
REMARK  160  A    between atoms: _379  and  _380
REMARK  161  A    between atoms: _383  and  _385
REMARK  162  A    between atoms: _385  and  _386
REMARK  163  A    between atoms: _388  and  _390
REMARK  164  A    between atoms: _390  and  _391
REMARK  165  A    between atoms: _393  and  _395
REMARK  166  A    between atoms: _395  and  _396
REMARK  167  A    between atoms: _395  and  _398
REMARK  168  A    between atoms: _398  and  _399
REMARK  169  A    between atoms: _402  and  _404
REMARK  170  A    between atoms: _404  and  _405
REMARK  171  A    between atoms: _407  and  _409
REMARK  172  A    between atoms: _409  and  _410
REMARK  173  A    between atoms: _412  and  _414
REMARK  174  A    between atoms: _414  and  _415
REMARK  175  A    between atoms: _414  and  _417
REMARK  176  A    between atoms: _417  and  _418
REMARK  177  A    between atoms: _424  and  _426
REMARK  178  A    between atoms: _426  and  _427
REMARK  179  A    between atoms: _426  and  _429
REMARK  180  A    between atoms: _429  and  _430
REMARK  181  A    between atoms: _433  and  _435
REMARK  182  A    between atoms: _435  and  _436
REMARK  183  A    between atoms: _435  and  _438
REMARK  184  A    between atoms: _441  and  _443
REMARK  185  A    between atoms: _443  and  _444
REMARK  186  A    between atoms: _443  and  _446
REMARK  187  A    between atoms: _446  and  _447
REMARK  188  A    between atoms: _450  and  _452
REMARK  189  A    between atoms: _452  and  _453
REMARK  190  A    between atoms: _452  and  _455
REMARK  191  A    between atoms: _455  and  _456
REMARK  192  A    between atoms: _460  and  _461
REMARK  193  A    between atoms: _466  and  _468
REMARK  194  A    between atoms: _468  and  _469
REMARK  195  A    between atoms: _468  and  _471
REMARK  196  A    between atoms: _474  and  _476
REMARK  197  A    between atoms: _476  and  _477
REMARK  198  A    between atoms: _476  and  _479
REMARK  199  A    between atoms: _479  and  _480
REMARK  200  A    between atoms: _485  and  _487
REMARK  201  A    between atoms: _487  and  _488
REMARK  202  A    between atoms: _487  and  _490
REMARK  203  A    between atoms: _490  and  _491
REMARK  204  A    between atoms: _494  and  _496
REMARK  205  A    between atoms: _496  and  _497
REMARK  206  A    between atoms: _496  and  _499
REMARK  207  A    between atoms: _499  and  _500
REMARK  208  A    between atoms: _503  and  _505
REMARK  209  A    between atoms: _505  and  _506
REMARK  210  A    between atoms: _508  and  _510
REMARK  211  A    between atoms: _510  and  _511
REMARK  212  A    between atoms: _510  and  _513
REMARK  213  A    between atoms: _513  and  _514
REMARK  214  A    between atoms: _514  and  _515
REMARK  215  A    between atoms: _515  and  _516
REMARK  216  A    between atoms: _525  and  _527
REMARK  217  A    between atoms: _527  and  _528
REMARK  218  A    between atoms: _527  and  _530
REMARK  219  A    between atoms: _530  and  _531
REMARK                            x       y       z     vdW  Elec       q    Type
REMARK                         _______ _______ _______ _____ _____    ______ ____
ROOT
ATOM      1  O   HOH     1      19.630  23.040  13.131  0.00  0.00    +0.000 OA
ENDROOT
TORSDOF 0
REMARK  Name = ../refined-set-2016/4q1x/4q1x_pocket.pdb
REMARK  219 active torsions:
REMARK  status: ('A' for Active; 'I' for Inactive)
REMARK    1  A    between atoms: _1  and  _3
REMARK    2  A    between atoms: _3  and  _4
REMARK    3  A    between atoms: _3  and  _6
REMARK    4  A    between atoms: _6  and  _7
REMARK    5  A    between atoms: _7  and  _8
REMARK    6  A    between atoms: _8  and  _9
REMARK    7  A    between atoms: _18  and  _20
REMARK    8  A    between atoms: _20  and  _21
REMARK    9  A    between atoms: _20  and  _23
REMARK   10  A    between atoms: _23  and  _24
REMARK   11  A    between atoms: _27  and  _29
REMARK   12  A    between atoms: _29  and  _30
REMARK   13  A    between atoms: _29  and  _32
REMARK   14  A    between atoms: _32  and  _33
REMARK   15  A    between atoms: _36  and  _38
REMARK   16  A    between atoms: _38  and  _39
REMARK   17  A    between atoms: _38  and  _41
REMARK   18  A    between atoms: _41  and  _42
REMARK   19  A    between atoms: _45  and  _47
REMARK   20  A    between atoms: _47  and  _48
REMARK   21  A    between atoms: _47  and  _50
REMARK   22  A    between atoms: _50  and  _51
REMARK   23  A    between atoms: _54  and  _56
REMARK   24  A    between atoms: _56  and  _57
REMARK   25  A    between atoms: _59  and  _61
REMARK   26  A    between atoms: _61  and  _62
REMARK   27  A    between atoms: _65  and  _67
REMARK   28  A    between atoms: _67  and  _68
REMARK   29  A    between atoms: _67  and  _70
REMARK   30  A    between atoms: _70  and  _71
REMARK   31  A    between atoms: _74  and  _76
REMARK   32  A    between atoms: _76  and  _77
REMARK   33  A    between atoms: _76  and  _79
REMARK   34  A    between atoms: _79  and  _80
REMARK   35  A    between atoms: _83  and  _85
REMARK   36  A    between atoms: _85  and  _86
REMARK   37  A    between atoms: _85  and  _88
REMARK   38  A    between atoms: _88  and  _89
REMARK   39  A    between atoms: _92  and  _94
REMARK   40  A    between atoms: _94  and  _95
REMARK   41  A    between atoms: _94  and  _97
REMARK   42  A    between atoms: _97  and  _98
REMARK   43  A    between atoms: _101  and  _103
REMARK   44  A    between atoms: _103  and  _104
REMARK   45  A    between atoms: _103  and  _106
REMARK   46  A    between atoms: _106  and  _107
REMARK   47  A    between atoms: _110  and  _112
REMARK   48  A    between atoms: _112  and  _113
REMARK   49  A    between atoms: _115  and  _117
REMARK   50  A    between atoms: _117  and  _118
REMARK   51  A    between atoms: _120  and  _122
REMARK   52  A    between atoms: _122  and  _123
REMARK   53  A    between atoms: _122  and  _125
REMARK   54  A    between atoms: _125  and  _126
REMARK   55  A    between atoms: _129  and  _131
REMARK   56  A    between atoms: _131  and  _132
REMARK   57  A    between atoms: _134  and  _136
REMARK   58  A    between atoms: _136  and  _137
REMARK   59  A    between atoms: _139  and  _141
REMARK   60  A    between atoms: _141  and  _142
REMARK   61  A    between atoms: _141  and  _144
REMARK   62  A    between atoms: _144  and  _145
REMARK   63  A    between atoms: _148  and  _150
REMARK   64  A    between atoms: _150  and  _151
REMARK   65  A    between atoms: _150  and  _153
REMARK   66  A    between atoms: _153  and  _154
REMARK   67  A    between atoms: _157  and  _159
REMARK   68  A    between atoms: _159  and  _160
REMARK   69  A    between atoms: _159  and  _162
REMARK   70  A    between atoms: _162  and  _163
REMARK   71  A    between atoms: _167  and  _168
REMARK   72  A    between atoms: _173  and  _175
REMARK   73  A    between atoms: _175  and  _176
REMARK   74  A    between atoms: _175  and  _178
REMARK   75  A    between atoms: _181  and  _183
REMARK   76  A    between atoms: _183  and  _184
REMARK   77  A    between atoms: _183  and  _186
REMARK   78  A    between atoms: _186  and  _187
REMARK   79  A    between atoms: _192  and  _194
REMARK   80  A    between atoms: _194  and  _195
REMARK   81  A    between atoms: _194  and  _197
REMARK   82  A    between atoms: _197  and  _198
REMARK   83  A    between atoms: _201  and  _203
REMARK   84  A    between atoms: _203  and  _204
REMARK   85  A    between atoms: _203  and  _206
REMARK   86  A    between atoms: _206  and  _207
REMARK   87  A    between atoms: _210  and  _212
REMARK   88  A    between atoms: _212  and  _213
REMARK   89  A    between atoms: _215  and  _217
REMARK   90  A    between atoms: _217  and  _218
REMARK   91  A    between atoms: _217  and  _220
REMARK   92  A    between atoms: _220  and  _221
REMARK   93  A    between atoms: _221  and  _222
REMARK   94  A    between atoms: _222  and  _223
REMARK   95  A    between atoms: _232  and  _234
REMARK   96  A    between atoms: _234  and  _235
REMARK   97  A    between atoms: _234  and  _237
REMARK   98  A    between atoms: _237  and  _238
REMARK   99  A    between atoms: _243  and  _245
REMARK  100  A    between atoms: _245  and  _246
REMARK  101  A    between atoms: _245  and  _248
REMARK  102  A    between atoms: _248  and  _249
REMARK  103  A    between atoms: _249  and  _250
REMARK  104  A    between atoms: _250  and  _251
REMARK  105  A    between atoms: _260  and  _262
REMARK  106  A    between atoms: _262  and  _263
REMARK  107  A    between atoms: _262  and  _265
REMARK  108  A    between atoms: _265  and  _266
REMARK  109  A    between atoms: _269  and  _271
REMARK  110  A    between atoms: _271  and  _272
REMARK  111  A    between atoms: _271  and  _274
REMARK  112  A    between atoms: _274  and  _275
REMARK  113  A    between atoms: _278  and  _280
REMARK  114  A    between atoms: _280  and  _281
REMARK  115  A    between atoms: _280  and  _283
REMARK  116  A    between atoms: _283  and  _284
REMARK  117  A    between atoms: _287  and  _289
REMARK  118  A    between atoms: _289  and  _290
REMARK  119  A    between atoms: _289  and  _292
REMARK  120  A    between atoms: _292  and  _293
REMARK  121  A    between atoms: _296  and  _298
REMARK  122  A    between atoms: _298  and  _299
REMARK  123  A    between atoms: _301  and  _303
REMARK  124  A    between atoms: _303  and  _304
REMARK  125  A    between atoms: _307  and  _309
REMARK  126  A    between atoms: _309  and  _310
REMARK  127  A    between atoms: _309  and  _312
REMARK  128  A    between atoms: _312  and  _313
REMARK  129  A    between atoms: _316  and  _318
REMARK  130  A    between atoms: _318  and  _319
REMARK  131  A    between atoms: _318  and  _321
REMARK  132  A    between atoms: _321  and  _322
REMARK  133  A    between atoms: _325  and  _327
REMARK  134  A    between atoms: _327  and  _328
REMARK  135  A    between atoms: _327  and  _330
REMARK  136  A    between atoms: _330  and  _331
REMARK  137  A    between atoms: _334  and  _336
REMARK  138  A    between atoms: _336  and  _337
REMARK  139  A    between atoms: _336  and  _339
REMARK  140  A    between atoms: _339  and  _340
REMARK  141  A    between atoms: _343  and  _345
REMARK  142  A    between atoms: _345  and  _346
REMARK  143  A    between atoms: _345  and  _348
REMARK  144  A    between atoms: _348  and  _349
REMARK  145  A    between atoms: _352  and  _354
REMARK  146  A    between atoms: _354  and  _355
REMARK  147  A    between atoms: _354  and  _357
REMARK  148  A    between atoms: _357  and  _358
REMARK  149  A    between atoms: _358  and  _359
REMARK  150  A    between atoms: _359  and  _360
REMARK  151  A    between atoms: _360  and  _361
REMARK  152  A    between atoms: _365  and  _367
REMARK  153  A    between atoms: _367  and  _368
REMARK  154  A    between atoms: _367  and  _370
REMARK  155  A    between atoms: _370  and  _371
REMARK  156  A    between atoms: _371  and  _372
REMARK  157  A    between atoms: _374  and  _376
REMARK  158  A    between atoms: _376  and  _377
REMARK  159  A    between atoms: _376  and  _379
REMARK  160  A    between atoms: _379  and  _380
REMARK  161  A    between atoms: _383  and  _385
REMARK  162  A    between atoms: _385  and  _386
REMARK  163  A    between atoms: _388  and  _390
REMARK  164  A    between atoms: _390  and  _391
REMARK  165  A    between atoms: _393  and  _395
REMARK  166  A    between atoms: _395  and  _396
REMARK  167  A    between atoms: _395  and  _398
REMARK  168  A    between atoms: _398  and  _399
REMARK  169  A    between atoms: _402  and  _404
REMARK  170  A    between atoms: _404  and  _405
REMARK  171  A    between atoms: _407  and  _409
REMARK  172  A    between atoms: _409  and  _410
REMARK  173  A    between atoms: _412  and  _414
REMARK  174  A    between atoms: _414  and  _415
REMARK  175  A    between atoms: _414  and  _417
REMARK  176  A    between atoms: _417  and  _418
REMARK  177  A    between atoms: _424  and  _426
REMARK  178  A    between atoms: _426  and  _427
REMARK  179  A    between atoms: _426  and  _429
REMARK  180  A    between atoms: _429  and  _430
REMARK  181  A    between atoms: _433  and  _435
REMARK  182  A    between atoms: _435  and  _436
REMARK  183  A    between atoms: _435  and  _438
REMARK  184  A    between atoms: _441  and  _443
REMARK  185  A    between atoms: _443  and  _444
REMARK  186  A    between atoms: _443  and  _446
REMARK  187  A    between atoms: _446  and  _447
REMARK  188  A    between atoms: _450  and  _452
REMARK  189  A    between atoms: _452  and  _453
REMARK  190  A    between atoms: _452  and  _455
REMARK  191  A    between atoms: _455  and  _456
REMARK  192  A    between atoms: _460  and  _461
REMARK  193  A    between atoms: _466  and  _468
REMARK  194  A    between atoms: _468  and  _469
REMARK  195  A    between atoms: _468  and  _471
REMARK  196  A    between atoms: _474  and  _476
REMARK  197  A    between atoms: _476  and  _477
REMARK  198  A    between atoms: _476  and  _479
REMARK  199  A    between atoms: _479  and  _480
REMARK  200  A    between atoms: _485  and  _487
REMARK  201  A    between atoms: _487  and  _488
REMARK  202  A    between atoms: _487  and  _490
REMARK  203  A    between atoms: _490  and  _491
REMARK  204  A    between atoms: _494  and  _496
REMARK  205  A    between atoms: _496  and  _497
REMARK  206  A    between atoms: _496  and  _499
REMARK  207  A    between atoms: _499  and  _500
REMARK  208  A    between atoms: _503  and  _505
REMARK  209  A    between atoms: _505  and  _506
REMARK  210  A    between atoms: _508  and  _510
REMARK  211  A    between atoms: _510  and  _511
REMARK  212  A    between atoms: _510  and  _513
REMARK  213  A    between atoms: _513  and  _514
REMARK  214  A    between atoms: _514  and  _515
REMARK  215  A    between atoms: _515  and  _516
REMARK  216  A    between atoms: _525  and  _527
REMARK  217  A    between atoms: _527  and  _528
REMARK  218  A    between atoms: _527  and  _530
REMARK  219  A    between atoms: _530  and  _531
REMARK                            x       y       z     vdW  Elec       q    Type
REMARK                         _______ _______ _______ _____ _____    ______ ____
ROOT
ATOM      1  O   HOH     1      20.152  21.694  15.462  0.00  0.00    +0.000 OA
ENDROOT
TORSDOF 0
REMARK  Name = ../refined-set-2016/4q1x/4q1x_pocket.pdb
REMARK  219 active torsions:
REMARK  status: ('A' for Active; 'I' for Inactive)
REMARK    1  A    between atoms: _1  and  _3
REMARK    2  A    between atoms: _3  and  _4
REMARK    3  A    between atoms: _3  and  _6
REMARK    4  A    between atoms: _6  and  _7
REMARK    5  A    between atoms: _7  and  _8
REMARK    6  A    between atoms: _8  and  _9
REMARK    7  A    between atoms: _18  and  _20
REMARK    8  A    between atoms: _20  and  _21
REMARK    9  A    between atoms: _20  and  _23
REMARK   10  A    between atoms: _23  and  _24
REMARK   11  A    between atoms: _27  and  _29
REMARK   12  A    between atoms: _29  and  _30
REMARK   13  A    between atoms: _29  and  _32
REMARK   14  A    between atoms: _32  and  _33
REMARK   15  A    between atoms: _36  and  _38
REMARK   16  A    between atoms: _38  and  _39
REMARK   17  A    between atoms: _38  and  _41
REMARK   18  A    between atoms: _41  and  _42
REMARK   19  A    between atoms: _45  and  _47
REMARK   20  A    between atoms: _47  and  _48
REMARK   21  A    between atoms: _47  and  _50
REMARK   22  A    between atoms: _50  and  _51
REMARK   23  A    between atoms: _54  and  _56
REMARK   24  A    between atoms: _56  and  _57
REMARK   25  A    between atoms: _59  and  _61
REMARK   26  A    between atoms: _61  and  _62
REMARK   27  A    between atoms: _65  and  _67
REMARK   28  A    between atoms: _67  and  _68
REMARK   29  A    between atoms: _67  and  _70
REMARK   30  A    between atoms: _70  and  _71
REMARK   31  A    between atoms: _74  and  _76
REMARK   32  A    between atoms: _76  and  _77
REMARK   33  A    between atoms: _76  and  _79
REMARK   34  A    between atoms: _79  and  _80
REMARK   35  A    between atoms: _83  and  _85
REMARK   36  A    between atoms: _85  and  _86
REMARK   37  A    between atoms: _85  and  _88
REMARK   38  A    between atoms: _88  and  _89
REMARK   39  A    between atoms: _92  and  _94
REMARK   40  A    between atoms: _94  and  _95
REMARK   41  A    between atoms: _94  and  _97
REMARK   42  A    between atoms: _97  and  _98
REMARK   43  A    between atoms: _101  and  _103
REMARK   44  A    between atoms: _103  and  _104
REMARK   45  A    between atoms: _103  and  _106
REMARK   46  A    between atoms: _106  and  _107
REMARK   47  A    between atoms: _110  and  _112
REMARK   48  A    between atoms: _112  and  _113
REMARK   49  A    between atoms: _115  and  _117
REMARK   50  A    between atoms: _117  and  _118
REMARK   51  A    between atoms: _120  and  _122
REMARK   52  A    between atoms: _122  and  _123
REMARK   53  A    between atoms: _122  and  _125
REMARK   54  A    between atoms: _125  and  _126
REMARK   55  A    between atoms: _129  and  _131
REMARK   56  A    between atoms: _131  and  _132
REMARK   57  A    between atoms: _134  and  _136
REMARK   58  A    between atoms: _136  and  _137
REMARK   59  A    between atoms: _139  and  _141
REMARK   60  A    between atoms: _141  and  _142
REMARK   61  A    between atoms: _141  and  _144
REMARK   62  A    between atoms: _144  and  _145
REMARK   63  A    between atoms: _148  and  _150
REMARK   64  A    between atoms: _150  and  _151
REMARK   65  A    between atoms: _150  and  _153
REMARK   66  A    between atoms: _153  and  _154
REMARK   67  A    between atoms: _157  and  _159
REMARK   68  A    between atoms: _159  and  _160
REMARK   69  A    between atoms: _159  and  _162
REMARK   70  A    between atoms: _162  and  _163
REMARK   71  A    between atoms: _167  and  _168
REMARK   72  A    between atoms: _173  and  _175
REMARK   73  A    between atoms: _175  and  _176
REMARK   74  A    between atoms: _175  and  _178
REMARK   75  A    between atoms: _181  and  _183
REMARK   76  A    between atoms: _183  and  _184
REMARK   77  A    between atoms: _183  and  _186
REMARK   78  A    between atoms: _186  and  _187
REMARK   79  A    between atoms: _192  and  _194
REMARK   80  A    between atoms: _194  and  _195
REMARK   81  A    between atoms: _194  and  _197
REMARK   82  A    between atoms: _197  and  _198
REMARK   83  A    between atoms: _201  and  _203
REMARK   84  A    between atoms: _203  and  _204
REMARK   85  A    between atoms: _203  and  _206
REMARK   86  A    between atoms: _206  and  _207
REMARK   87  A    between atoms: _210  and  _212
REMARK   88  A    between atoms: _212  and  _213
REMARK   89  A    between atoms: _215  and  _217
REMARK   90  A    between atoms: _217  and  _218
REMARK   91  A    between atoms: _217  and  _220
REMARK   92  A    between atoms: _220  and  _221
REMARK   93  A    between atoms: _221  and  _222
REMARK   94  A    between atoms: _222  and  _223
REMARK   95  A    between atoms: _232  and  _234
REMARK   96  A    between atoms: _234  and  _235
REMARK   97  A    between atoms: _234  and  _237
REMARK   98  A    between atoms: _237  and  _238
REMARK   99  A    between atoms: _243  and  _245
REMARK  100  A    between atoms: _245  and  _246
REMARK  101  A    between atoms: _245  and  _248
REMARK  102  A    between atoms: _248  and  _249
REMARK  103  A    between atoms: _249  and  _250
REMARK  104  A    between atoms: _250  and  _251
REMARK  105  A    between atoms: _260  and  _262
REMARK  106  A    between atoms: _262  and  _263
REMARK  107  A    between atoms: _262  and  _265
REMARK  108  A    between atoms: _265  and  _266
REMARK  109  A    between atoms: _269  and  _271
REMARK  110  A    between atoms: _271  and  _272
REMARK  111  A    between atoms: _271  and  _274
REMARK  112  A    between atoms: _274  and  _275
REMARK  113  A    between atoms: _278  and  _280
REMARK  114  A    between atoms: _280  and  _281
REMARK  115  A    between atoms: _280  and  _283
REMARK  116  A    between atoms: _283  and  _284
REMARK  117  A    between atoms: _287  and  _289
REMARK  118  A    between atoms: _289  and  _290
REMARK  119  A    between atoms: _289  and  _292
REMARK  120  A    between atoms: _292  and  _293
REMARK  121  A    between atoms: _296  and  _298
REMARK  122  A    between atoms: _298  and  _299
REMARK  123  A    between atoms: _301  and  _303
REMARK  124  A    between atoms: _303  and  _304
REMARK  125  A    between atoms: _307  and  _309
REMARK  126  A    between atoms: _309  and  _310
REMARK  127  A    between atoms: _309  and  _312
REMARK  128  A    between atoms: _312  and  _313
REMARK  129  A    between atoms: _316  and  _318
REMARK  130  A    between atoms: _318  and  _319
REMARK  131  A    between atoms: _318  and  _321
REMARK  132  A    between atoms: _321  and  _322
REMARK  133  A    between atoms: _325  and  _327
REMARK  134  A    between atoms: _327  and  _328
REMARK  135  A    between atoms: _327  and  _330
REMARK  136  A    between atoms: _330  and  _331
REMARK  137  A    between atoms: _334  and  _336
REMARK  138  A    between atoms: _336  and  _337
REMARK  139  A    between atoms: _336  and  _339
REMARK  140  A    between atoms: _339  and  _340
REMARK  141  A    between atoms: _343  and  _345
REMARK  142  A    between atoms: _345  and  _346
REMARK  143  A    between atoms: _345  and  _348
REMARK  144  A    between atoms: _348  and  _349
REMARK  145  A    between atoms: _352  and  _354
REMARK  146  A    between atoms: _354  and  _355
REMARK  147  A    between atoms: _354  and  _357
REMARK  148  A    between atoms: _357  and  _358
REMARK  149  A    between atoms: _358  and  _359
REMARK  150  A    between atoms: _359  and  _360
REMARK  151  A    between atoms: _360  and  _361
REMARK  152  A    between atoms: _365  and  _367
REMARK  153  A    between atoms: _367  and  _368
REMARK  154  A    between atoms: _367  and  _370
REMARK  155  A    between atoms: _370  and  _371
REMARK  156  A    between atoms: _371  and  _372
REMARK  157  A    between atoms: _374  and  _376
REMARK  158  A    between atoms: _376  and  _377
REMARK  159  A    between atoms: _376  and  _379
REMARK  160  A    between atoms: _379  and  _380
REMARK  161  A    between atoms: _383  and  _385
REMARK  162  A    between atoms: _385  and  _386
REMARK  163  A    between atoms: _388  and  _390
REMARK  164  A    between atoms: _390  and  _391
REMARK  165  A    between atoms: _393  and  _395
REMARK  166  A    between atoms: _395  and  _396
REMARK  167  A    between atoms: _395  and  _398
REMARK  168  A    between atoms: _398  and  _399
REMARK  169  A    between atoms: _402  and  _404
REMARK  170  A    between atoms: _404  and  _405
REMARK  171  A    between atoms: _407  and  _409
REMARK  172  A    between atoms: _409  and  _410
REMARK  173  A    between atoms: _412  and  _414
REMARK  174  A    between atoms: _414  and  _415
REMARK  175  A    between atoms: _414  and  _417
REMARK  176  A    between atoms: _417  and  _418
REMARK  177  A    between atoms: _424  and  _426
REMARK  178  A    between atoms: _426  and  _427
REMARK  179  A    between atoms: _426  and  _429
REMARK  180  A    between atoms: _429  and  _430
REMARK  181  A    between atoms: _433  and  _435
REMARK  182  A    between atoms: _435  and  _436
REMARK  183  A    between atoms: _435  and  _438
REMARK  184  A    between atoms: _441  and  _443
REMARK  185  A    between atoms: _443  and  _444
REMARK  186  A    between atoms: _443  and  _446
REMARK  187  A    between atoms: _446  and  _447
REMARK  188  A    between atoms: _450  and  _452
REMARK  189  A    between atoms: _452  and  _453
REMARK  190  A    between atoms: _452  and  _455
REMARK  191  A    between atoms: _455  and  _456
REMARK  192  A    between atoms: _460  and  _461
REMARK  193  A    between atoms: _466  and  _468
REMARK  194  A    between atoms: _468  and  _469
REMARK  195  A    between atoms: _468  and  _471
REMARK  196  A    between atoms: _474  and  _476
REMARK  197  A    between atoms: _476  and  _477
REMARK  198  A    between atoms: _476  and  _479
REMARK  199  A    between atoms: _479  and  _480
REMARK  200  A    between atoms: _485  and  _487
REMARK  201  A    between atoms: _487  and  _488
REMARK  202  A    between atoms: _487  and  _490
REMARK  203  A    between atoms: _490  and  _491
REMARK  204  A    between atoms: _494  and  _496
REMARK  205  A    between atoms: _496  and  _497
REMARK  206  A    between atoms: _496  and  _499
REMARK  207  A    between atoms: _499  and  _500
REMARK  208  A    between atoms: _503  and  _505
REMARK  209  A    between atoms: _505  and  _506
REMARK  210  A    between atoms: _508  and  _510
REMARK  211  A    between atoms: _510  and  _511
REMARK  212  A    between atoms: _510  and  _513
REMARK  213  A    between atoms: _513  and  _514
REMARK  214  A    between atoms: _514  and  _515
REMARK  215  A    between atoms: _515  and  _516
REMARK  216  A    between atoms: _525  and  _527
REMARK  217  A    between atoms: _527  and  _528
REMARK  218  A    between atoms: _527  and  _530
REMARK  219  A    between atoms: _530  and  _531
REMARK                            x       y       z     vdW  Elec       q    Type
REMARK                         _______ _______ _______ _____ _____    ______ ____
ROOT
ATOM      1  O   HOH     1      20.135  32.214  11.728  0.00  0.00    +0.000 OA
ENDROOT
TORSDOF 0
REMARK  Name = ../refined-set-2016/4q1x/4q1x_pocket.pdb
REMARK  219 active torsions:
REMARK  status: ('A' for Active; 'I' for Inactive)
REMARK    1  A    between atoms: _1  and  _3
REMARK    2  A    between atoms: _3  and  _4
REMARK    3  A    between atoms: _3  and  _6
REMARK    4  A    between atoms: _6  and  _7
REMARK    5  A    between atoms: _7  and  _8
REMARK    6  A    between atoms: _8  and  _9
REMARK    7  A    between atoms: _18  and  _20
REMARK    8  A    between atoms: _20  and  _21
REMARK    9  A    between atoms: _20  and  _23
REMARK   10  A    between atoms: _23  and  _24
REMARK   11  A    between atoms: _27  and  _29
REMARK   12  A    between atoms: _29  and  _30
REMARK   13  A    between atoms: _29  and  _32
REMARK   14  A    between atoms: _32  and  _33
REMARK   15  A    between atoms: _36  and  _38
REMARK   16  A    between atoms: _38  and  _39
REMARK   17  A    between atoms: _38  and  _41
REMARK   18  A    between atoms: _41  and  _42
REMARK   19  A    between atoms: _45  and  _47
REMARK   20  A    between atoms: _47  and  _48
REMARK   21  A    between atoms: _47  and  _50
REMARK   22  A    between atoms: _50  and  _51
REMARK   23  A    between atoms: _54  and  _56
REMARK   24  A    between atoms: _56  and  _57
REMARK   25  A    between atoms: _59  and  _61
REMARK   26  A    between atoms: _61  and  _62
REMARK   27  A    between atoms: _65  and  _67
REMARK   28  A    between atoms: _67  and  _68
REMARK   29  A    between atoms: _67  and  _70
REMARK   30  A    between atoms: _70  and  _71
REMARK   31  A    between atoms: _74  and  _76
REMARK   32  A    between atoms: _76  and  _77
REMARK   33  A    between atoms: _76  and  _79
REMARK   34  A    between atoms: _79  and  _80
REMARK   35  A    between atoms: _83  and  _85
REMARK   36  A    between atoms: _85  and  _86
REMARK   37  A    between atoms: _85  and  _88
REMARK   38  A    between atoms: _88  and  _89
REMARK   39  A    between atoms: _92  and  _94
REMARK   40  A    between atoms: _94  and  _95
REMARK   41  A    between atoms: _94  and  _97
REMARK   42  A    between atoms: _97  and  _98
REMARK   43  A    between atoms: _101  and  _103
REMARK   44  A    between atoms: _103  and  _104
REMARK   45  A    between atoms: _103  and  _106
REMARK   46  A    between atoms: _106  and  _107
REMARK   47  A    between atoms: _110  and  _112
REMARK   48  A    between atoms: _112  and  _113
REMARK   49  A    between atoms: _115  and  _117
REMARK   50  A    between atoms: _117  and  _118
REMARK   51  A    between atoms: _120  and  _122
REMARK   52  A    between atoms: _122  and  _123
REMARK   53  A    between atoms: _122  and  _125
REMARK   54  A    between atoms: _125  and  _126
REMARK   55  A    between atoms: _129  and  _131
REMARK   56  A    between atoms: _131  and  _132
REMARK   57  A    between atoms: _134  and  _136
REMARK   58  A    between atoms: _136  and  _137
REMARK   59  A    between atoms: _139  and  _141
REMARK   60  A    between atoms: _141  and  _142
REMARK   61  A    between atoms: _141  and  _144
REMARK   62  A    between atoms: _144  and  _145
REMARK   63  A    between atoms: _148  and  _150
REMARK   64  A    between atoms: _150  and  _151
REMARK   65  A    between atoms: _150  and  _153
REMARK   66  A    between atoms: _153  and  _154
REMARK   67  A    between atoms: _157  and  _159
REMARK   68  A    between atoms: _159  and  _160
REMARK   69  A    between atoms: _159  and  _162
REMARK   70  A    between atoms: _162  and  _163
REMARK   71  A    between atoms: _167  and  _168
REMARK   72  A    between atoms: _173  and  _175
REMARK   73  A    between atoms: _175  and  _176
REMARK   74  A    between atoms: _175  and  _178
REMARK   75  A    between atoms: _181  and  _183
REMARK   76  A    between atoms: _183  and  _184
REMARK   77  A    between atoms: _183  and  _186
REMARK   78  A    between atoms: _186  and  _187
REMARK   79  A    between atoms: _192  and  _194
REMARK   80  A    between atoms: _194  and  _195
REMARK   81  A    between atoms: _194  and  _197
REMARK   82  A    between atoms: _197  and  _198
REMARK   83  A    between atoms: _201  and  _203
REMARK   84  A    between atoms: _203  and  _204
REMARK   85  A    between atoms: _203  and  _206
REMARK   86  A    between atoms: _206  and  _207
REMARK   87  A    between atoms: _210  and  _212
REMARK   88  A    between atoms: _212  and  _213
REMARK   89  A    between atoms: _215  and  _217
REMARK   90  A    between atoms: _217  and  _218
REMARK   91  A    between atoms: _217  and  _220
REMARK   92  A    between atoms: _220  and  _221
REMARK   93  A    between atoms: _221  and  _222
REMARK   94  A    between atoms: _222  and  _223
REMARK   95  A    between atoms: _232  and  _234
REMARK   96  A    between atoms: _234  and  _235
REMARK   97  A    between atoms: _234  and  _237
REMARK   98  A    between atoms: _237  and  _238
REMARK   99  A    between atoms: _243  and  _245
REMARK  100  A    between atoms: _245  and  _246
REMARK  101  A    between atoms: _245  and  _248
REMARK  102  A    between atoms: _248  and  _249
REMARK  103  A    between atoms: _249  and  _250
REMARK  104  A    between atoms: _250  and  _251
REMARK  105  A    between atoms: _260  and  _262
REMARK  106  A    between atoms: _262  and  _263
REMARK  107  A    between atoms: _262  and  _265
REMARK  108  A    between atoms: _265  and  _266
REMARK  109  A    between atoms: _269  and  _271
REMARK  110  A    between atoms: _271  and  _272
REMARK  111  A    between atoms: _271  and  _274
REMARK  112  A    between atoms: _274  and  _275
REMARK  113  A    between atoms: _278  and  _280
REMARK  114  A    between atoms: _280  and  _281
REMARK  115  A    between atoms: _280  and  _283
REMARK  116  A    between atoms: _283  and  _284
REMARK  117  A    between atoms: _287  and  _289
REMARK  118  A    between atoms: _289  and  _290
REMARK  119  A    between atoms: _289  and  _292
REMARK  120  A    between atoms: _292  and  _293
REMARK  121  A    between atoms: _296  and  _298
REMARK  122  A    between atoms: _298  and  _299
REMARK  123  A    between atoms: _301  and  _303
REMARK  124  A    between atoms: _303  and  _304
REMARK  125  A    between atoms: _307  and  _309
REMARK  126  A    between atoms: _309  and  _310
REMARK  127  A    between atoms: _309  and  _312
REMARK  128  A    between atoms: _312  and  _313
REMARK  129  A    between atoms: _316  and  _318
REMARK  130  A    between atoms: _318  and  _319
REMARK  131  A    between atoms: _318  and  _321
REMARK  132  A    between atoms: _321  and  _322
REMARK  133  A    between atoms: _325  and  _327
REMARK  134  A    between atoms: _327  and  _328
REMARK  135  A    between atoms: _327  and  _330
REMARK  136  A    between atoms: _330  and  _331
REMARK  137  A    between atoms: _334  and  _336
REMARK  138  A    between atoms: _336  and  _337
REMARK  139  A    between atoms: _336  and  _339
REMARK  140  A    between atoms: _339  and  _340
REMARK  141  A    between atoms: _343  and  _345
REMARK  142  A    between atoms: _345  and  _346
REMARK  143  A    between atoms: _345  and  _348
REMARK  144  A    between atoms: _348  and  _349
REMARK  145  A    between atoms: _352  and  _354
REMARK  146  A    between atoms: _354  and  _355
REMARK  147  A    between atoms: _354  and  _357
REMARK  148  A    between atoms: _357  and  _358
REMARK  149  A    between atoms: _358  and  _359
REMARK  150  A    between atoms: _359  and  _360
REMARK  151  A    between atoms: _360  and  _361
REMARK  152  A    between atoms: _365  and  _367
REMARK  153  A    between atoms: _367  and  _368
REMARK  154  A    between atoms: _367  and  _370
REMARK  155  A    between atoms: _370  and  _371
REMARK  156  A    between atoms: _371  and  _372
REMARK  157  A    between atoms: _374  and  _376
REMARK  158  A    between atoms: _376  and  _377
REMARK  159  A    between atoms: _376  and  _379
REMARK  160  A    between atoms: _379  and  _380
REMARK  161  A    between atoms: _383  and  _385
REMARK  162  A    between atoms: _385  and  _386
REMARK  163  A    between atoms: _388  and  _390
REMARK  164  A    between atoms: _390  and  _391
REMARK  165  A    between atoms: _393  and  _395
REMARK  166  A    between atoms: _395  and  _396
REMARK  167  A    between atoms: _395  and  _398
REMARK  168  A    between atoms: _398  and  _399
REMARK  169  A    between atoms: _402  and  _404
REMARK  170  A    between atoms: _404  and  _405
REMARK  171  A    between atoms: _407  and  _409
REMARK  172  A    between atoms: _409  and  _410
REMARK  173  A    between atoms: _412  and  _414
REMARK  174  A    between atoms: _414  and  _415
REMARK  175  A    between atoms: _414  and  _417
REMARK  176  A    between atoms: _417  and  _418
REMARK  177  A    between atoms: _424  and  _426
REMARK  178  A    between atoms: _426  and  _427
REMARK  179  A    between atoms: _426  and  _429
REMARK  180  A    between atoms: _429  and  _430
REMARK  181  A    between atoms: _433  and  _435
REMARK  182  A    between atoms: _435  and  _436
REMARK  183  A    between atoms: _435  and  _438
REMARK  184  A    between atoms: _441  and  _443
REMARK  185  A    between atoms: _443  and  _444
REMARK  186  A    between atoms: _443  and  _446
REMARK  187  A    between atoms: _446  and  _447
REMARK  188  A    between atoms: _450  and  _452
REMARK  189  A    between atoms: _452  and  _453
REMARK  190  A    between atoms: _452  and  _455
REMARK  191  A    between atoms: _455  and  _456
REMARK  192  A    between atoms: _460  and  _461
REMARK  193  A    between atoms: _466  and  _468
REMARK  194  A    between atoms: _468  and  _469
REMARK  195  A    between atoms: _468  and  _471
REMARK  196  A    between atoms: _474  and  _476
REMARK  197  A    between atoms: _476  and  _477
REMARK  198  A    between atoms: _476  and  _479
REMARK  199  A    between atoms: _479  and  _480
REMARK  200  A    between atoms: _485  and  _487
REMARK  201  A    between atoms: _487  and  _488
REMARK  202  A    between atoms: _487  and  _490
REMARK  203  A    between atoms: _490  and  _491
REMARK  204  A    between atoms: _494  and  _496
REMARK  205  A    between atoms: _496  and  _497
REMARK  206  A    between atoms: _496  and  _499
REMARK  207  A    between atoms: _499  and  _500
REMARK  208  A    between atoms: _503  and  _505
REMARK  209  A    between atoms: _505  and  _506
REMARK  210  A    between atoms: _508  and  _510
REMARK  211  A    between atoms: _510  and  _511
REMARK  212  A    between atoms: _510  and  _513
REMARK  213  A    between atoms: _513  and  _514
REMARK  214  A    between atoms: _514  and  _515
REMARK  215  A    between atoms: _515  and  _516
REMARK  216  A    between atoms: _525  and  _527
REMARK  217  A    between atoms: _527  and  _528
REMARK  218  A    between atoms: _527  and  _530
REMARK  219  A    between atoms: _530  and  _531
REMARK                            x       y       z     vdW  Elec       q    Type
REMARK                         _______ _______ _______ _____ _____    ______ ____
ROOT
ATOM      1  O   HOH     1      31.279  23.944  12.246  0.00  0.00    +0.000 OA
ENDROOT
TORSDOF 0
REMARK  Name = ../refined-set-2016/4q1x/4q1x_pocket.pdb
REMARK  219 active torsions:
REMARK  status: ('A' for Active; 'I' for Inactive)
REMARK    1  A    between atoms: _1  and  _3
REMARK    2  A    between atoms: _3  and  _4
REMARK    3  A    between atoms: _3  and  _6
REMARK    4  A    between atoms: _6  and  _7
REMARK    5  A    between atoms: _7  and  _8
REMARK    6  A    between atoms: _8  and  _9
REMARK    7  A    between atoms: _18  and  _20
REMARK    8  A    between atoms: _20  and  _21
REMARK    9  A    between atoms: _20  and  _23
REMARK   10  A    between atoms: _23  and  _24
REMARK   11  A    between atoms: _27  and  _29
REMARK   12  A    between atoms: _29  and  _30
REMARK   13  A    between atoms: _29  and  _32
REMARK   14  A    between atoms: _32  and  _33
REMARK   15  A    between atoms: _36  and  _38
REMARK   16  A    between atoms: _38  and  _39
REMARK   17  A    between atoms: _38  and  _41
REMARK   18  A    between atoms: _41  and  _42
REMARK   19  A    between atoms: _45  and  _47
REMARK   20  A    between atoms: _47  and  _48
REMARK   21  A    between atoms: _47  and  _50
REMARK   22  A    between atoms: _50  and  _51
REMARK   23  A    between atoms: _54  and  _56
REMARK   24  A    between atoms: _56  and  _57
REMARK   25  A    between atoms: _59  and  _61
REMARK   26  A    between atoms: _61  and  _62
REMARK   27  A    between atoms: _65  and  _67
REMARK   28  A    between atoms: _67  and  _68
REMARK   29  A    between atoms: _67  and  _70
REMARK   30  A    between atoms: _70  and  _71
REMARK   31  A    between atoms: _74  and  _76
REMARK   32  A    between atoms: _76  and  _77
REMARK   33  A    between atoms: _76  and  _79
REMARK   34  A    between atoms: _79  and  _80
REMARK   35  A    between atoms: _83  and  _85
REMARK   36  A    between atoms: _85  and  _86
REMARK   37  A    between atoms: _85  and  _88
REMARK   38  A    between atoms: _88  and  _89
REMARK   39  A    between atoms: _92  and  _94
REMARK   40  A    between atoms: _94  and  _95
REMARK   41  A    between atoms: _94  and  _97
REMARK   42  A    between atoms: _97  and  _98
REMARK   43  A    between atoms: _101  and  _103
REMARK   44  A    between atoms: _103  and  _104
REMARK   45  A    between atoms: _103  and  _106
REMARK   46  A    between atoms: _106  and  _107
REMARK   47  A    between atoms: _110  and  _112
REMARK   48  A    between atoms: _112  and  _113
REMARK   49  A    between atoms: _115  and  _117
REMARK   50  A    between atoms: _117  and  _118
REMARK   51  A    between atoms: _120  and  _122
REMARK   52  A    between atoms: _122  and  _123
REMARK   53  A    between atoms: _122  and  _125
REMARK   54  A    between atoms: _125  and  _126
REMARK   55  A    between atoms: _129  and  _131
REMARK   56  A    between atoms: _131  and  _132
REMARK   57  A    between atoms: _134  and  _136
REMARK   58  A    between atoms: _136  and  _137
REMARK   59  A    between atoms: _139  and  _141
REMARK   60  A    between atoms: _141  and  _142
REMARK   61  A    between atoms: _141  and  _144
REMARK   62  A    between atoms: _144  and  _145
REMARK   63  A    between atoms: _148  and  _150
REMARK   64  A    between atoms: _150  and  _151
REMARK   65  A    between atoms: _150  and  _153
REMARK   66  A    between atoms: _153  and  _154
REMARK   67  A    between atoms: _157  and  _159
REMARK   68  A    between atoms: _159  and  _160
REMARK   69  A    between atoms: _159  and  _162
REMARK   70  A    between atoms: _162  and  _163
REMARK   71  A    between atoms: _167  and  _168
REMARK   72  A    between atoms: _173  and  _175
REMARK   73  A    between atoms: _175  and  _176
REMARK   74  A    between atoms: _175  and  _178
REMARK   75  A    between atoms: _181  and  _183
REMARK   76  A    between atoms: _183  and  _184
REMARK   77  A    between atoms: _183  and  _186
REMARK   78  A    between atoms: _186  and  _187
REMARK   79  A    between atoms: _192  and  _194
REMARK   80  A    between atoms: _194  and  _195
REMARK   81  A    between atoms: _194  and  _197
REMARK   82  A    between atoms: _197  and  _198
REMARK   83  A    between atoms: _201  and  _203
REMARK   84  A    between atoms: _203  and  _204
REMARK   85  A    between atoms: _203  and  _206
REMARK   86  A    between atoms: _206  and  _207
REMARK   87  A    between atoms: _210  and  _212
REMARK   88  A    between atoms: _212  and  _213
REMARK   89  A    between atoms: _215  and  _217
REMARK   90  A    between atoms: _217  and  _218
REMARK   91  A    between atoms: _217  and  _220
REMARK   92  A    between atoms: _220  and  _221
REMARK   93  A    between atoms: _221  and  _222
REMARK   94  A    between atoms: _222  and  _223
REMARK   95  A    between atoms: _232  and  _234
REMARK   96  A    between atoms: _234  and  _235
REMARK   97  A    between atoms: _234  and  _237
REMARK   98  A    between atoms: _237  and  _238
REMARK   99  A    between atoms: _243  and  _245
REMARK  100  A    between atoms: _245  and  _246
REMARK  101  A    between atoms: _245  and  _248
REMARK  102  A    between atoms: _248  and  _249
REMARK  103  A    between atoms: _249  and  _250
REMARK  104  A    between atoms: _250  and  _251
REMARK  105  A    between atoms: _260  and  _262
REMARK  106  A    between atoms: _262  and  _263
REMARK  107  A    between atoms: _262  and  _265
REMARK  108  A    between atoms: _265  and  _266
REMARK  109  A    between atoms: _269  and  _271
REMARK  110  A    between atoms: _271  and  _272
REMARK  111  A    between atoms: _271  and  _274
REMARK  112  A    between atoms: _274  and  _275
REMARK  113  A    between atoms: _278  and  _280
REMARK  114  A    between atoms: _280  and  _281
REMARK  115  A    between atoms: _280  and  _283
REMARK  116  A    between atoms: _283  and  _284
REMARK  117  A    between atoms: _287  and  _289
REMARK  118  A    between atoms: _289  and  _290
REMARK  119  A    between atoms: _289  and  _292
REMARK  120  A    between atoms: _292  and  _293
REMARK  121  A    between atoms: _296  and  _298
REMARK  122  A    between atoms: _298  and  _299
REMARK  123  A    between atoms: _301  and  _303
REMARK  124  A    between atoms: _303  and  _304
REMARK  125  A    between atoms: _307  and  _309
REMARK  126  A    between atoms: _309  and  _310
REMARK  127  A    between atoms: _309  and  _312
REMARK  128  A    between atoms: _312  and  _313
REMARK  129  A    between atoms: _316  and  _318
REMARK  130  A    between atoms: _318  and  _319
REMARK  131  A    between atoms: _318  and  _321
REMARK  132  A    between atoms: _321  and  _322
REMARK  133  A    between atoms: _325  and  _327
REMARK  134  A    between atoms: _327  and  _328
REMARK  135  A    between atoms: _327  and  _330
REMARK  136  A    between atoms: _330  and  _331
REMARK  137  A    between atoms: _334  and  _336
REMARK  138  A    between atoms: _336  and  _337
REMARK  139  A    between atoms: _336  and  _339
REMARK  140  A    between atoms: _339  and  _340
REMARK  141  A    between atoms: _343  and  _345
REMARK  142  A    between atoms: _345  and  _346
REMARK  143  A    between atoms: _345  and  _348
REMARK  144  A    between atoms: _348  and  _349
REMARK  145  A    between atoms: _352  and  _354
REMARK  146  A    between atoms: _354  and  _355
REMARK  147  A    between atoms: _354  and  _357
REMARK  148  A    between atoms: _357  and  _358
REMARK  149  A    between atoms: _358  and  _359
REMARK  150  A    between atoms: _359  and  _360
REMARK  151  A    between atoms: _360  and  _361
REMARK  152  A    between atoms: _365  and  _367
REMARK  153  A    between atoms: _367  and  _368
REMARK  154  A    between atoms: _367  and  _370
REMARK  155  A    between atoms: _370  and  _371
REMARK  156  A    between atoms: _371  and  _372
REMARK  157  A    between atoms: _374  and  _376
REMARK  158  A    between atoms: _376  and  _377
REMARK  159  A    between atoms: _376  and  _379
REMARK  160  A    between atoms: _379  and  _380
REMARK  161  A    between atoms: _383  and  _385
REMARK  162  A    between atoms: _385  and  _386
REMARK  163  A    between atoms: _388  and  _390
REMARK  164  A    between atoms: _390  and  _391
REMARK  165  A    between atoms: _393  and  _395
REMARK  166  A    between atoms: _395  and  _396
REMARK  167  A    between atoms: _395  and  _398
REMARK  168  A    between atoms: _398  and  _399
REMARK  169  A    between atoms: _402  and  _404
REMARK  170  A    between atoms: _404  and  _405
REMARK  171  A    between atoms: _407  and  _409
REMARK  172  A    between atoms: _409  and  _410
REMARK  173  A    between atoms: _412  and  _414
REMARK  174  A    between atoms: _414  and  _415
REMARK  175  A    between atoms: _414  and  _417
REMARK  176  A    between atoms: _417  and  _418
REMARK  177  A    between atoms: _424  and  _426
REMARK  178  A    between atoms: _426  and  _427
REMARK  179  A    between atoms: _426  and  _429
REMARK  180  A    between atoms: _429  and  _430
REMARK  181  A    between atoms: _433  and  _435
REMARK  182  A    between atoms: _435  and  _436
REMARK  183  A    between atoms: _435  and  _438
REMARK  184  A    between atoms: _441  and  _443
REMARK  185  A    between atoms: _443  and  _444
REMARK  186  A    between atoms: _443  and  _446
REMARK  187  A    between atoms: _446  and  _447
REMARK  188  A    between atoms: _450  and  _452
REMARK  189  A    between atoms: _452  and  _453
REMARK  190  A    between atoms: _452  and  _455
REMARK  191  A    between atoms: _455  and  _456
REMARK  192  A    between atoms: _460  and  _461
REMARK  193  A    between atoms: _466  and  _468
REMARK  194  A    between atoms: _468  and  _469
REMARK  195  A    between atoms: _468  and  _471
REMARK  196  A    between atoms: _474  and  _476
REMARK  197  A    between atoms: _476  and  _477
REMARK  198  A    between atoms: _476  and  _479
REMARK  199  A    between atoms: _479  and  _480
REMARK  200  A    between atoms: _485  and  _487
REMARK  201  A    between atoms: _487  and  _488
REMARK  202  A    between atoms: _487  and  _490
REMARK  203  A    between atoms: _490  and  _491
REMARK  204  A    between atoms: _494  and  _496
REMARK  205  A    between atoms: _496  and  _497
REMARK  206  A    between atoms: _496  and  _499
REMARK  207  A    between atoms: _499  and  _500
REMARK  208  A    between atoms: _503  and  _505
REMARK  209  A    between atoms: _505  and  _506
REMARK  210  A    between atoms: _508  and  _510
REMARK  211  A    between atoms: _510  and  _511
REMARK  212  A    between atoms: _510  and  _513
REMARK  213  A    between atoms: _513  and  _514
REMARK  214  A    between atoms: _514  and  _515
REMARK  215  A    between atoms: _515  and  _516
REMARK  216  A    between atoms: _525  and  _527
REMARK  217  A    between atoms: _527  and  _528
REMARK  218  A    between atoms: _527  and  _530
REMARK  219  A    between atoms: _530  and  _531
REMARK                            x       y       z     vdW  Elec       q    Type
REMARK                         _______ _______ _______ _____ _____    ______ ____
ROOT
ATOM      1  O   HOH     1      26.337  18.918  13.066  0.00  0.00    +0.000 OA
ENDROOT
TORSDOF 0
REMARK  Name = ../refined-set-2016/4q1x/4q1x_pocket.pdb
REMARK  219 active torsions:
REMARK  status: ('A' for Active; 'I' for Inactive)
REMARK    1  A    between atoms: _1  and  _3
REMARK    2  A    between atoms: _3  and  _4
REMARK    3  A    between atoms: _3  and  _6
REMARK    4  A    between atoms: _6  and  _7
REMARK    5  A    between atoms: _7  and  _8
REMARK    6  A    between atoms: _8  and  _9
REMARK    7  A    between atoms: _18  and  _20
REMARK    8  A    between atoms: _20  and  _21
REMARK    9  A    between atoms: _20  and  _23
REMARK   10  A    between atoms: _23  and  _24
REMARK   11  A    between atoms: _27  and  _29
REMARK   12  A    between atoms: _29  and  _30
REMARK   13  A    between atoms: _29  and  _32
REMARK   14  A    between atoms: _32  and  _33
REMARK   15  A    between atoms: _36  and  _38
REMARK   16  A    between atoms: _38  and  _39
REMARK   17  A    between atoms: _38  and  _41
REMARK   18  A    between atoms: _41  and  _42
REMARK   19  A    between atoms: _45  and  _47
REMARK   20  A    between atoms: _47  and  _48
REMARK   21  A    between atoms: _47  and  _50
REMARK   22  A    between atoms: _50  and  _51
REMARK   23  A    between atoms: _54  and  _56
REMARK   24  A    between atoms: _56  and  _57
REMARK   25  A    between atoms: _59  and  _61
REMARK   26  A    between atoms: _61  and  _62
REMARK   27  A    between atoms: _65  and  _67
REMARK   28  A    between atoms: _67  and  _68
REMARK   29  A    between atoms: _67  and  _70
REMARK   30  A    between atoms: _70  and  _71
REMARK   31  A    between atoms: _74  and  _76
REMARK   32  A    between atoms: _76  and  _77
REMARK   33  A    between atoms: _76  and  _79
REMARK   34  A    between atoms: _79  and  _80
REMARK   35  A    between atoms: _83  and  _85
REMARK   36  A    between atoms: _85  and  _86
REMARK   37  A    between atoms: _85  and  _88
REMARK   38  A    between atoms: _88  and  _89
REMARK   39  A    between atoms: _92  and  _94
REMARK   40  A    between atoms: _94  and  _95
REMARK   41  A    between atoms: _94  and  _97
REMARK   42  A    between atoms: _97  and  _98
REMARK   43  A    between atoms: _101  and  _103
REMARK   44  A    between atoms: _103  and  _104
REMARK   45  A    between atoms: _103  and  _106
REMARK   46  A    between atoms: _106  and  _107
REMARK   47  A    between atoms: _110  and  _112
REMARK   48  A    between atoms: _112  and  _113
REMARK   49  A    between atoms: _115  and  _117
REMARK   50  A    between atoms: _117  and  _118
REMARK   51  A    between atoms: _120  and  _122
REMARK   52  A    between atoms: _122  and  _123
REMARK   53  A    between atoms: _122  and  _125
REMARK   54  A    between atoms: _125  and  _126
REMARK   55  A    between atoms: _129  and  _131
REMARK   56  A    between atoms: _131  and  _132
REMARK   57  A    between atoms: _134  and  _136
REMARK   58  A    between atoms: _136  and  _137
REMARK   59  A    between atoms: _139  and  _141
REMARK   60  A    between atoms: _141  and  _142
REMARK   61  A    between atoms: _141  and  _144
REMARK   62  A    between atoms: _144  and  _145
REMARK   63  A    between atoms: _148  and  _150
REMARK   64  A    between atoms: _150  and  _151
REMARK   65  A    between atoms: _150  and  _153
REMARK   66  A    between atoms: _153  and  _154
REMARK   67  A    between atoms: _157  and  _159
REMARK   68  A    between atoms: _159  and  _160
REMARK   69  A    between atoms: _159  and  _162
REMARK   70  A    between atoms: _162  and  _163
REMARK   71  A    between atoms: _167  and  _168
REMARK   72  A    between atoms: _173  and  _175
REMARK   73  A    between atoms: _175  and  _176
REMARK   74  A    between atoms: _175  and  _178
REMARK   75  A    between atoms: _181  and  _183
REMARK   76  A    between atoms: _183  and  _184
REMARK   77  A    between atoms: _183  and  _186
REMARK   78  A    between atoms: _186  and  _187
REMARK   79  A    between atoms: _192  and  _194
REMARK   80  A    between atoms: _194  and  _195
REMARK   81  A    between atoms: _194  and  _197
REMARK   82  A    between atoms: _197  and  _198
REMARK   83  A    between atoms: _201  and  _203
REMARK   84  A    between atoms: _203  and  _204
REMARK   85  A    between atoms: _203  and  _206
REMARK   86  A    between atoms: _206  and  _207
REMARK   87  A    between atoms: _210  and  _212
REMARK   88  A    between atoms: _212  and  _213
REMARK   89  A    between atoms: _215  and  _217
REMARK   90  A    between atoms: _217  and  _218
REMARK   91  A    between atoms: _217  and  _220
REMARK   92  A    between atoms: _220  and  _221
REMARK   93  A    between atoms: _221  and  _222
REMARK   94  A    between atoms: _222  and  _223
REMARK   95  A    between atoms: _232  and  _234
REMARK   96  A    between atoms: _234  and  _235
REMARK   97  A    between atoms: _234  and  _237
REMARK   98  A    between atoms: _237  and  _238
REMARK   99  A    between atoms: _243  and  _245
REMARK  100  A    between atoms: _245  and  _246
REMARK  101  A    between atoms: _245  and  _248
REMARK  102  A    between atoms: _248  and  _249
REMARK  103  A    between atoms: _249  and  _250
REMARK  104  A    between atoms: _250  and  _251
REMARK  105  A    between atoms: _260  and  _262
REMARK  106  A    between atoms: _262  and  _263
REMARK  107  A    between atoms: _262  and  _265
REMARK  108  A    between atoms: _265  and  _266
REMARK  109  A    between atoms: _269  and  _271
REMARK  110  A    between atoms: _271  and  _272
REMARK  111  A    between atoms: _271  and  _274
REMARK  112  A    between atoms: _274  and  _275
REMARK  113  A    between atoms: _278  and  _280
REMARK  114  A    between atoms: _280  and  _281
REMARK  115  A    between atoms: _280  and  _283
REMARK  116  A    between atoms: _283  and  _284
REMARK  117  A    between atoms: _287  and  _289
REMARK  118  A    between atoms: _289  and  _290
REMARK  119  A    between atoms: _289  and  _292
REMARK  120  A    between atoms: _292  and  _293
REMARK  121  A    between atoms: _296  and  _298
REMARK  122  A    between atoms: _298  and  _299
REMARK  123  A    between atoms: _301  and  _303
REMARK  124  A    between atoms: _303  and  _304
REMARK  125  A    between atoms: _307  and  _309
REMARK  126  A    between atoms: _309  and  _310
REMARK  127  A    between atoms: _309  and  _312
REMARK  128  A    between atoms: _312  and  _313
REMARK  129  A    between atoms: _316  and  _318
REMARK  130  A    between atoms: _318  and  _319
REMARK  131  A    between atoms: _318  and  _321
REMARK  132  A    between atoms: _321  and  _322
REMARK  133  A    between atoms: _325  and  _327
REMARK  134  A    between atoms: _327  and  _328
REMARK  135  A    between atoms: _327  and  _330
REMARK  136  A    between atoms: _330  and  _331
REMARK  137  A    between atoms: _334  and  _336
REMARK  138  A    between atoms: _336  and  _337
REMARK  139  A    between atoms: _336  and  _339
REMARK  140  A    between atoms: _339  and  _340
REMARK  141  A    between atoms: _343  and  _345
REMARK  142  A    between atoms: _345  and  _346
REMARK  143  A    between atoms: _345  and  _348
REMARK  144  A    between atoms: _348  and  _349
REMARK  145  A    between atoms: _352  and  _354
REMARK  146  A    between atoms: _354  and  _355
REMARK  147  A    between atoms: _354  and  _357
REMARK  148  A    between atoms: _357  and  _358
REMARK  149  A    between atoms: _358  and  _359
REMARK  150  A    between atoms: _359  and  _360
REMARK  151  A    between atoms: _360  and  _361
REMARK  152  A    between atoms: _365  and  _367
REMARK  153  A    between atoms: _367  and  _368
REMARK  154  A    between atoms: _367  and  _370
REMARK  155  A    between atoms: _370  and  _371
REMARK  156  A    between atoms: _371  and  _372
REMARK  157  A    between atoms: _374  and  _376
REMARK  158  A    between atoms: _376  and  _377
REMARK  159  A    between atoms: _376  and  _379
REMARK  160  A    between atoms: _379  and  _380
REMARK  161  A    between atoms: _383  and  _385
REMARK  162  A    between atoms: _385  and  _386
REMARK  163  A    between atoms: _388  and  _390
REMARK  164  A    between atoms: _390  and  _391
REMARK  165  A    between atoms: _393  and  _395
REMARK  166  A    between atoms: _395  and  _396
REMARK  167  A    between atoms: _395  and  _398
REMARK  168  A    between atoms: _398  and  _399
REMARK  169  A    between atoms: _402  and  _404
REMARK  170  A    between atoms: _404  and  _405
REMARK  171  A    between atoms: _407  and  _409
REMARK  172  A    between atoms: _409  and  _410
REMARK  173  A    between atoms: _412  and  _414
REMARK  174  A    between atoms: _414  and  _415
REMARK  175  A    between atoms: _414  and  _417
REMARK  176  A    between atoms: _417  and  _418
REMARK  177  A    between atoms: _424  and  _426
REMARK  178  A    between atoms: _426  and  _427
REMARK  179  A    between atoms: _426  and  _429
REMARK  180  A    between atoms: _429  and  _430
REMARK  181  A    between atoms: _433  and  _435
REMARK  182  A    between atoms: _435  and  _436
REMARK  183  A    between atoms: _435  and  _438
REMARK  184  A    between atoms: _441  and  _443
REMARK  185  A    between atoms: _443  and  _444
REMARK  186  A    between atoms: _443  and  _446
REMARK  187  A    between atoms: _446  and  _447
REMARK  188  A    between atoms: _450  and  _452
REMARK  189  A    between atoms: _452  and  _453
REMARK  190  A    between atoms: _452  and  _455
REMARK  191  A    between atoms: _455  and  _456
REMARK  192  A    between atoms: _460  and  _461
REMARK  193  A    between atoms: _466  and  _468
REMARK  194  A    between atoms: _468  and  _469
REMARK  195  A    between atoms: _468  and  _471
REMARK  196  A    between atoms: _474  and  _476
REMARK  197  A    between atoms: _476  and  _477
REMARK  198  A    between atoms: _476  and  _479
REMARK  199  A    between atoms: _479  and  _480
REMARK  200  A    between atoms: _485  and  _487
REMARK  201  A    between atoms: _487  and  _488
REMARK  202  A    between atoms: _487  and  _490
REMARK  203  A    between atoms: _490  and  _491
REMARK  204  A    between atoms: _494  and  _496
REMARK  205  A    between atoms: _496  and  _497
REMARK  206  A    between atoms: _496  and  _499
REMARK  207  A    between atoms: _499  and  _500
REMARK  208  A    between atoms: _503  and  _505
REMARK  209  A    between atoms: _505  and  _506
REMARK  210  A    between atoms: _508  and  _510
REMARK  211  A    between atoms: _510  and  _511
REMARK  212  A    between atoms: _510  and  _513
REMARK  213  A    between atoms: _513  and  _514
REMARK  214  A    between atoms: _514  and  _515
REMARK  215  A    between atoms: _515  and  _516
REMARK  216  A    between atoms: _525  and  _527
REMARK  217  A    between atoms: _527  and  _528
REMARK  218  A    between atoms: _527  and  _530
REMARK  219  A    between atoms: _530  and  _531
REMARK                            x       y       z     vdW  Elec       q    Type
REMARK                         _______ _______ _______ _____ _____    ______ ____
ROOT
ATOM      1  O   HOH     1      15.323  34.161   5.037  0.00  0.00    +0.000 OA
ENDROOT
TORSDOF 0
REMARK  Name = ../refined-set-2016/4q1x/4q1x_pocket.pdb
REMARK  219 active torsions:
REMARK  status: ('A' for Active; 'I' for Inactive)
REMARK    1  A    between atoms: _1  and  _3
REMARK    2  A    between atoms: _3  and  _4
REMARK    3  A    between atoms: _3  and  _6
REMARK    4  A    between atoms: _6  and  _7
REMARK    5  A    between atoms: _7  and  _8
REMARK    6  A    between atoms: _8  and  _9
REMARK    7  A    between atoms: _18  and  _20
REMARK    8  A    between atoms: _20  and  _21
REMARK    9  A    between atoms: _20  and  _23
REMARK   10  A    between atoms: _23  and  _24
REMARK   11  A    between atoms: _27  and  _29
REMARK   12  A    between atoms: _29  and  _30
REMARK   13  A    between atoms: _29  and  _32
REMARK   14  A    between atoms: _32  and  _33
REMARK   15  A    between atoms: _36  and  _38
REMARK   16  A    between atoms: _38  and  _39
REMARK   17  A    between atoms: _38  and  _41
REMARK   18  A    between atoms: _41  and  _42
REMARK   19  A    between atoms: _45  and  _47
REMARK   20  A    between atoms: _47  and  _48
REMARK   21  A    between atoms: _47  and  _50
REMARK   22  A    between atoms: _50  and  _51
REMARK   23  A    between atoms: _54  and  _56
REMARK   24  A    between atoms: _56  and  _57
REMARK   25  A    between atoms: _59  and  _61
REMARK   26  A    between atoms: _61  and  _62
REMARK   27  A    between atoms: _65  and  _67
REMARK   28  A    between atoms: _67  and  _68
REMARK   29  A    between atoms: _67  and  _70
REMARK   30  A    between atoms: _70  and  _71
REMARK   31  A    between atoms: _74  and  _76
REMARK   32  A    between atoms: _76  and  _77
REMARK   33  A    between atoms: _76  and  _79
REMARK   34  A    between atoms: _79  and  _80
REMARK   35  A    between atoms: _83  and  _85
REMARK   36  A    between atoms: _85  and  _86
REMARK   37  A    between atoms: _85  and  _88
REMARK   38  A    between atoms: _88  and  _89
REMARK   39  A    between atoms: _92  and  _94
REMARK   40  A    between atoms: _94  and  _95
REMARK   41  A    between atoms: _94  and  _97
REMARK   42  A    between atoms: _97  and  _98
REMARK   43  A    between atoms: _101  and  _103
REMARK   44  A    between atoms: _103  and  _104
REMARK   45  A    between atoms: _103  and  _106
REMARK   46  A    between atoms: _106  and  _107
REMARK   47  A    between atoms: _110  and  _112
REMARK   48  A    between atoms: _112  and  _113
REMARK   49  A    between atoms: _115  and  _117
REMARK   50  A    between atoms: _117  and  _118
REMARK   51  A    between atoms: _120  and  _122
REMARK   52  A    between atoms: _122  and  _123
REMARK   53  A    between atoms: _122  and  _125
REMARK   54  A    between atoms: _125  and  _126
REMARK   55  A    between atoms: _129  and  _131
REMARK   56  A    between atoms: _131  and  _132
REMARK   57  A    between atoms: _134  and  _136
REMARK   58  A    between atoms: _136  and  _137
REMARK   59  A    between atoms: _139  and  _141
REMARK   60  A    between atoms: _141  and  _142
REMARK   61  A    between atoms: _141  and  _144
REMARK   62  A    between atoms: _144  and  _145
REMARK   63  A    between atoms: _148  and  _150
REMARK   64  A    between atoms: _150  and  _151
REMARK   65  A    between atoms: _150  and  _153
REMARK   66  A    between atoms: _153  and  _154
REMARK   67  A    between atoms: _157  and  _159
REMARK   68  A    between atoms: _159  and  _160
REMARK   69  A    between atoms: _159  and  _162
REMARK   70  A    between atoms: _162  and  _163
REMARK   71  A    between atoms: _167  and  _168
REMARK   72  A    between atoms: _173  and  _175
REMARK   73  A    between atoms: _175  and  _176
REMARK   74  A    between atoms: _175  and  _178
REMARK   75  A    between atoms: _181  and  _183
REMARK   76  A    between atoms: _183  and  _184
REMARK   77  A    between atoms: _183  and  _186
REMARK   78  A    between atoms: _186  and  _187
REMARK   79  A    between atoms: _192  and  _194
REMARK   80  A    between atoms: _194  and  _195
REMARK   81  A    between atoms: _194  and  _197
REMARK   82  A    between atoms: _197  and  _198
REMARK   83  A    between atoms: _201  and  _203
REMARK   84  A    between atoms: _203  and  _204
REMARK   85  A    between atoms: _203  and  _206
REMARK   86  A    between atoms: _206  and  _207
REMARK   87  A    between atoms: _210  and  _212
REMARK   88  A    between atoms: _212  and  _213
REMARK   89  A    between atoms: _215  and  _217
REMARK   90  A    between atoms: _217  and  _218
REMARK   91  A    between atoms: _217  and  _220
REMARK   92  A    between atoms: _220  and  _221
REMARK   93  A    between atoms: _221  and  _222
REMARK   94  A    between atoms: _222  and  _223
REMARK   95  A    between atoms: _232  and  _234
REMARK   96  A    between atoms: _234  and  _235
REMARK   97  A    between atoms: _234  and  _237
REMARK   98  A    between atoms: _237  and  _238
REMARK   99  A    between atoms: _243  and  _245
REMARK  100  A    between atoms: _245  and  _246
REMARK  101  A    between atoms: _245  and  _248
REMARK  102  A    between atoms: _248  and  _249
REMARK  103  A    between atoms: _249  and  _250
REMARK  104  A    between atoms: _250  and  _251
REMARK  105  A    between atoms: _260  and  _262
REMARK  106  A    between atoms: _262  and  _263
REMARK  107  A    between atoms: _262  and  _265
REMARK  108  A    between atoms: _265  and  _266
REMARK  109  A    between atoms: _269  and  _271
REMARK  110  A    between atoms: _271  and  _272
REMARK  111  A    between atoms: _271  and  _274
REMARK  112  A    between atoms: _274  and  _275
REMARK  113  A    between atoms: _278  and  _280
REMARK  114  A    between atoms: _280  and  _281
REMARK  115  A    between atoms: _280  and  _283
REMARK  116  A    between atoms: _283  and  _284
REMARK  117  A    between atoms: _287  and  _289
REMARK  118  A    between atoms: _289  and  _290
REMARK  119  A    between atoms: _289  and  _292
REMARK  120  A    between atoms: _292  and  _293
REMARK  121  A    between atoms: _296  and  _298
REMARK  122  A    between atoms: _298  and  _299
REMARK  123  A    between atoms: _301  and  _303
REMARK  124  A    between atoms: _303  and  _304
REMARK  125  A    between atoms: _307  and  _309
REMARK  126  A    between atoms: _309  and  _310
REMARK  127  A    between atoms: _309  and  _312
REMARK  128  A    between atoms: _312  and  _313
REMARK  129  A    between atoms: _316  and  _318
REMARK  130  A    between atoms: _318  and  _319
REMARK  131  A    between atoms: _318  and  _321
REMARK  132  A    between atoms: _321  and  _322
REMARK  133  A    between atoms: _325  and  _327
REMARK  134  A    between atoms: _327  and  _328
REMARK  135  A    between atoms: _327  and  _330
REMARK  136  A    between atoms: _330  and  _331
REMARK  137  A    between atoms: _334  and  _336
REMARK  138  A    between atoms: _336  and  _337
REMARK  139  A    between atoms: _336  and  _339
REMARK  140  A    between atoms: _339  and  _340
REMARK  141  A    between atoms: _343  and  _345
REMARK  142  A    between atoms: _345  and  _346
REMARK  143  A    between atoms: _345  and  _348
REMARK  144  A    between atoms: _348  and  _349
REMARK  145  A    between atoms: _352  and  _354
REMARK  146  A    between atoms: _354  and  _355
REMARK  147  A    between atoms: _354  and  _357
REMARK  148  A    between atoms: _357  and  _358
REMARK  149  A    between atoms: _358  and  _359
REMARK  150  A    between atoms: _359  and  _360
REMARK  151  A    between atoms: _360  and  _361
REMARK  152  A    between atoms: _365  and  _367
REMARK  153  A    between atoms: _367  and  _368
REMARK  154  A    between atoms: _367  and  _370
REMARK  155  A    between atoms: _370  and  _371
REMARK  156  A    between atoms: _371  and  _372
REMARK  157  A    between atoms: _374  and  _376
REMARK  158  A    between atoms: _376  and  _377
REMARK  159  A    between atoms: _376  and  _379
REMARK  160  A    between atoms: _379  and  _380
REMARK  161  A    between atoms: _383  and  _385
REMARK  162  A    between atoms: _385  and  _386
REMARK  163  A    between atoms: _388  and  _390
REMARK  164  A    between atoms: _390  and  _391
REMARK  165  A    between atoms: _393  and  _395
REMARK  166  A    between atoms: _395  and  _396
REMARK  167  A    between atoms: _395  and  _398
REMARK  168  A    between atoms: _398  and  _399
REMARK  169  A    between atoms: _402  and  _404
REMARK  170  A    between atoms: _404  and  _405
REMARK  171  A    between atoms: _407  and  _409
REMARK  172  A    between atoms: _409  and  _410
REMARK  173  A    between atoms: _412  and  _414
REMARK  174  A    between atoms: _414  and  _415
REMARK  175  A    between atoms: _414  and  _417
REMARK  176  A    between atoms: _417  and  _418
REMARK  177  A    between atoms: _424  and  _426
REMARK  178  A    between atoms: _426  and  _427
REMARK  179  A    between atoms: _426  and  _429
REMARK  180  A    between atoms: _429  and  _430
REMARK  181  A    between atoms: _433  and  _435
REMARK  182  A    between atoms: _435  and  _436
REMARK  183  A    between atoms: _435  and  _438
REMARK  184  A    between atoms: _441  and  _443
REMARK  185  A    between atoms: _443  and  _444
REMARK  186  A    between atoms: _443  and  _446
REMARK  187  A    between atoms: _446  and  _447
REMARK  188  A    between atoms: _450  and  _452
REMARK  189  A    between atoms: _452  and  _453
REMARK  190  A    between atoms: _452  and  _455
REMARK  191  A    between atoms: _455  and  _456
REMARK  192  A    between atoms: _460  and  _461
REMARK  193  A    between atoms: _466  and  _468
REMARK  194  A    between atoms: _468  and  _469
REMARK  195  A    between atoms: _468  and  _471
REMARK  196  A    between atoms: _474  and  _476
REMARK  197  A    between atoms: _476  and  _477
REMARK  198  A    between atoms: _476  and  _479
REMARK  199  A    between atoms: _479  and  _480
REMARK  200  A    between atoms: _485  and  _487
REMARK  201  A    between atoms: _487  and  _488
REMARK  202  A    between atoms: _487  and  _490
REMARK  203  A    between atoms: _490  and  _491
REMARK  204  A    between atoms: _494  and  _496
REMARK  205  A    between atoms: _496  and  _497
REMARK  206  A    between atoms: _496  and  _499
REMARK  207  A    between atoms: _499  and  _500
REMARK  208  A    between atoms: _503  and  _505
REMARK  209  A    between atoms: _505  and  _506
REMARK  210  A    between atoms: _508  and  _510
REMARK  211  A    between atoms: _510  and  _511
REMARK  212  A    between atoms: _510  and  _513
REMARK  213  A    between atoms: _513  and  _514
REMARK  214  A    between atoms: _514  and  _515
REMARK  215  A    between atoms: _515  and  _516
REMARK  216  A    between atoms: _525  and  _527
REMARK  217  A    between atoms: _527  and  _528
REMARK  218  A    between atoms: _527  and  _530
REMARK  219  A    between atoms: _530  and  _531
REMARK                            x       y       z     vdW  Elec       q    Type
REMARK                         _______ _______ _______ _____ _____    ______ ____
ROOT
ATOM      1  O   HOH     1      30.464  21.868  10.831  0.00  0.00    +0.000 OA
ENDROOT
TORSDOF 0
REMARK  Name = ../refined-set-2016/4q1x/4q1x_pocket.pdb
REMARK  219 active torsions:
REMARK  status: ('A' for Active; 'I' for Inactive)
REMARK    1  A    between atoms: _1  and  _3
REMARK    2  A    between atoms: _3  and  _4
REMARK    3  A    between atoms: _3  and  _6
REMARK    4  A    between atoms: _6  and  _7
REMARK    5  A    between atoms: _7  and  _8
REMARK    6  A    between atoms: _8  and  _9
REMARK    7  A    between atoms: _18  and  _20
REMARK    8  A    between atoms: _20  and  _21
REMARK    9  A    between atoms: _20  and  _23
REMARK   10  A    between atoms: _23  and  _24
REMARK   11  A    between atoms: _27  and  _29
REMARK   12  A    between atoms: _29  and  _30
REMARK   13  A    between atoms: _29  and  _32
REMARK   14  A    between atoms: _32  and  _33
REMARK   15  A    between atoms: _36  and  _38
REMARK   16  A    between atoms: _38  and  _39
REMARK   17  A    between atoms: _38  and  _41
REMARK   18  A    between atoms: _41  and  _42
REMARK   19  A    between atoms: _45  and  _47
REMARK   20  A    between atoms: _47  and  _48
REMARK   21  A    between atoms: _47  and  _50
REMARK   22  A    between atoms: _50  and  _51
REMARK   23  A    between atoms: _54  and  _56
REMARK   24  A    between atoms: _56  and  _57
REMARK   25  A    between atoms: _59  and  _61
REMARK   26  A    between atoms: _61  and  _62
REMARK   27  A    between atoms: _65  and  _67
REMARK   28  A    between atoms: _67  and  _68
REMARK   29  A    between atoms: _67  and  _70
REMARK   30  A    between atoms: _70  and  _71
REMARK   31  A    between atoms: _74  and  _76
REMARK   32  A    between atoms: _76  and  _77
REMARK   33  A    between atoms: _76  and  _79
REMARK   34  A    between atoms: _79  and  _80
REMARK   35  A    between atoms: _83  and  _85
REMARK   36  A    between atoms: _85  and  _86
REMARK   37  A    between atoms: _85  and  _88
REMARK   38  A    between atoms: _88  and  _89
REMARK   39  A    between atoms: _92  and  _94
REMARK   40  A    between atoms: _94  and  _95
REMARK   41  A    between atoms: _94  and  _97
REMARK   42  A    between atoms: _97  and  _98
REMARK   43  A    between atoms: _101  and  _103
REMARK   44  A    between atoms: _103  and  _104
REMARK   45  A    between atoms: _103  and  _106
REMARK   46  A    between atoms: _106  and  _107
REMARK   47  A    between atoms: _110  and  _112
REMARK   48  A    between atoms: _112  and  _113
REMARK   49  A    between atoms: _115  and  _117
REMARK   50  A    between atoms: _117  and  _118
REMARK   51  A    between atoms: _120  and  _122
REMARK   52  A    between atoms: _122  and  _123
REMARK   53  A    between atoms: _122  and  _125
REMARK   54  A    between atoms: _125  and  _126
REMARK   55  A    between atoms: _129  and  _131
REMARK   56  A    between atoms: _131  and  _132
REMARK   57  A    between atoms: _134  and  _136
REMARK   58  A    between atoms: _136  and  _137
REMARK   59  A    between atoms: _139  and  _141
REMARK   60  A    between atoms: _141  and  _142
REMARK   61  A    between atoms: _141  and  _144
REMARK   62  A    between atoms: _144  and  _145
REMARK   63  A    between atoms: _148  and  _150
REMARK   64  A    between atoms: _150  and  _151
REMARK   65  A    between atoms: _150  and  _153
REMARK   66  A    between atoms: _153  and  _154
REMARK   67  A    between atoms: _157  and  _159
REMARK   68  A    between atoms: _159  and  _160
REMARK   69  A    between atoms: _159  and  _162
REMARK   70  A    between atoms: _162  and  _163
REMARK   71  A    between atoms: _167  and  _168
REMARK   72  A    between atoms: _173  and  _175
REMARK   73  A    between atoms: _175  and  _176
REMARK   74  A    between atoms: _175  and  _178
REMARK   75  A    between atoms: _181  and  _183
REMARK   76  A    between atoms: _183  and  _184
REMARK   77  A    between atoms: _183  and  _186
REMARK   78  A    between atoms: _186  and  _187
REMARK   79  A    between atoms: _192  and  _194
REMARK   80  A    between atoms: _194  and  _195
REMARK   81  A    between atoms: _194  and  _197
REMARK   82  A    between atoms: _197  and  _198
REMARK   83  A    between atoms: _201  and  _203
REMARK   84  A    between atoms: _203  and  _204
REMARK   85  A    between atoms: _203  and  _206
REMARK   86  A    between atoms: _206  and  _207
REMARK   87  A    between atoms: _210  and  _212
REMARK   88  A    between atoms: _212  and  _213
REMARK   89  A    between atoms: _215  and  _217
REMARK   90  A    between atoms: _217  and  _218
REMARK   91  A    between atoms: _217  and  _220
REMARK   92  A    between atoms: _220  and  _221
REMARK   93  A    between atoms: _221  and  _222
REMARK   94  A    between atoms: _222  and  _223
REMARK   95  A    between atoms: _232  and  _234
REMARK   96  A    between atoms: _234  and  _235
REMARK   97  A    between atoms: _234  and  _237
REMARK   98  A    between atoms: _237  and  _238
REMARK   99  A    between atoms: _243  and  _245
REMARK  100  A    between atoms: _245  and  _246
REMARK  101  A    between atoms: _245  and  _248
REMARK  102  A    between atoms: _248  and  _249
REMARK  103  A    between atoms: _249  and  _250
REMARK  104  A    between atoms: _250  and  _251
REMARK  105  A    between atoms: _260  and  _262
REMARK  106  A    between atoms: _262  and  _263
REMARK  107  A    between atoms: _262  and  _265
REMARK  108  A    between atoms: _265  and  _266
REMARK  109  A    between atoms: _269  and  _271
REMARK  110  A    between atoms: _271  and  _272
REMARK  111  A    between atoms: _271  and  _274
REMARK  112  A    between atoms: _274  and  _275
REMARK  113  A    between atoms: _278  and  _280
REMARK  114  A    between atoms: _280  and  _281
REMARK  115  A    between atoms: _280  and  _283
REMARK  116  A    between atoms: _283  and  _284
REMARK  117  A    between atoms: _287  and  _289
REMARK  118  A    between atoms: _289  and  _290
REMARK  119  A    between atoms: _289  and  _292
REMARK  120  A    between atoms: _292  and  _293
REMARK  121  A    between atoms: _296  and  _298
REMARK  122  A    between atoms: _298  and  _299
REMARK  123  A    between atoms: _301  and  _303
REMARK  124  A    between atoms: _303  and  _304
REMARK  125  A    between atoms: _307  and  _309
REMARK  126  A    between atoms: _309  and  _310
REMARK  127  A    between atoms: _309  and  _312
REMARK  128  A    between atoms: _312  and  _313
REMARK  129  A    between atoms: _316  and  _318
REMARK  130  A    between atoms: _318  and  _319
REMARK  131  A    between atoms: _318  and  _321
REMARK  132  A    between atoms: _321  and  _322
REMARK  133  A    between atoms: _325  and  _327
REMARK  134  A    between atoms: _327  and  _328
REMARK  135  A    between atoms: _327  and  _330
REMARK  136  A    between atoms: _330  and  _331
REMARK  137  A    between atoms: _334  and  _336
REMARK  138  A    between atoms: _336  and  _337
REMARK  139  A    between atoms: _336  and  _339
REMARK  140  A    between atoms: _339  and  _340
REMARK  141  A    between atoms: _343  and  _345
REMARK  142  A    between atoms: _345  and  _346
REMARK  143  A    between atoms: _345  and  _348
REMARK  144  A    between atoms: _348  and  _349
REMARK  145  A    between atoms: _352  and  _354
REMARK  146  A    between atoms: _354  and  _355
REMARK  147  A    between atoms: _354  and  _357
REMARK  148  A    between atoms: _357  and  _358
REMARK  149  A    between atoms: _358  and  _359
REMARK  150  A    between atoms: _359  and  _360
REMARK  151  A    between atoms: _360  and  _361
REMARK  152  A    between atoms: _365  and  _367
REMARK  153  A    between atoms: _367  and  _368
REMARK  154  A    between atoms: _367  and  _370
REMARK  155  A    between atoms: _370  and  _371
REMARK  156  A    between atoms: _371  and  _372
REMARK  157  A    between atoms: _374  and  _376
REMARK  158  A    between atoms: _376  and  _377
REMARK  159  A    between atoms: _376  and  _379
REMARK  160  A    between atoms: _379  and  _380
REMARK  161  A    between atoms: _383  and  _385
REMARK  162  A    between atoms: _385  and  _386
REMARK  163  A    between atoms: _388  and  _390
REMARK  164  A    between atoms: _390  and  _391
REMARK  165  A    between atoms: _393  and  _395
REMARK  166  A    between atoms: _395  and  _396
REMARK  167  A    between atoms: _395  and  _398
REMARK  168  A    between atoms: _398  and  _399
REMARK  169  A    between atoms: _402  and  _404
REMARK  170  A    between atoms: _404  and  _405
REMARK  171  A    between atoms: _407  and  _409
REMARK  172  A    between atoms: _409  and  _410
REMARK  173  A    between atoms: _412  and  _414
REMARK  174  A    between atoms: _414  and  _415
REMARK  175  A    between atoms: _414  and  _417
REMARK  176  A    between atoms: _417  and  _418
REMARK  177  A    between atoms: _424  and  _426
REMARK  178  A    between atoms: _426  and  _427
REMARK  179  A    between atoms: _426  and  _429
REMARK  180  A    between atoms: _429  and  _430
REMARK  181  A    between atoms: _433  and  _435
REMARK  182  A    between atoms: _435  and  _436
REMARK  183  A    between atoms: _435  and  _438
REMARK  184  A    between atoms: _441  and  _443
REMARK  185  A    between atoms: _443  and  _444
REMARK  186  A    between atoms: _443  and  _446
REMARK  187  A    between atoms: _446  and  _447
REMARK  188  A    between atoms: _450  and  _452
REMARK  189  A    between atoms: _452  and  _453
REMARK  190  A    between atoms: _452  and  _455
REMARK  191  A    between atoms: _455  and  _456
REMARK  192  A    between atoms: _460  and  _461
REMARK  193  A    between atoms: _466  and  _468
REMARK  194  A    between atoms: _468  and  _469
REMARK  195  A    between atoms: _468  and  _471
REMARK  196  A    between atoms: _474  and  _476
REMARK  197  A    between atoms: _476  and  _477
REMARK  198  A    between atoms: _476  and  _479
REMARK  199  A    between atoms: _479  and  _480
REMARK  200  A    between atoms: _485  and  _487
REMARK  201  A    between atoms: _487  and  _488
REMARK  202  A    between atoms: _487  and  _490
REMARK  203  A    between atoms: _490  and  _491
REMARK  204  A    between atoms: _494  and  _496
REMARK  205  A    between atoms: _496  and  _497
REMARK  206  A    between atoms: _496  and  _499
REMARK  207  A    between atoms: _499  and  _500
REMARK  208  A    between atoms: _503  and  _505
REMARK  209  A    between atoms: _505  and  _506
REMARK  210  A    between atoms: _508  and  _510
REMARK  211  A    between atoms: _510  and  _511
REMARK  212  A    between atoms: _510  and  _513
REMARK  213  A    between atoms: _513  and  _514
REMARK  214  A    between atoms: _514  and  _515
REMARK  215  A    between atoms: _515  and  _516
REMARK  216  A    between atoms: _525  and  _527
REMARK  217  A    between atoms: _527  and  _528
REMARK  218  A    between atoms: _527  and  _530
REMARK  219  A    between atoms: _530  and  _531
REMARK                            x       y       z     vdW  Elec       q    Type
REMARK                         _______ _______ _______ _____ _____    ______ ____
ROOT
ATOM      1  O   HOH     1      23.276  25.816   4.691  0.00  0.00    +0.000 OA
ENDROOT
TORSDOF 0
REMARK  Name = ../refined-set-2016/4q1x/4q1x_pocket.pdb
REMARK  219 active torsions:
REMARK  status: ('A' for Active; 'I' for Inactive)
REMARK    1  A    between atoms: _1  and  _3
REMARK    2  A    between atoms: _3  and  _4
REMARK    3  A    between atoms: _3  and  _6
REMARK    4  A    between atoms: _6  and  _7
REMARK    5  A    between atoms: _7  and  _8
REMARK    6  A    between atoms: _8  and  _9
REMARK    7  A    between atoms: _18  and  _20
REMARK    8  A    between atoms: _20  and  _21
REMARK    9  A    between atoms: _20  and  _23
REMARK   10  A    between atoms: _23  and  _24
REMARK   11  A    between atoms: _27  and  _29
REMARK   12  A    between atoms: _29  and  _30
REMARK   13  A    between atoms: _29  and  _32
REMARK   14  A    between atoms: _32  and  _33
REMARK   15  A    between atoms: _36  and  _38
REMARK   16  A    between atoms: _38  and  _39
REMARK   17  A    between atoms: _38  and  _41
REMARK   18  A    between atoms: _41  and  _42
REMARK   19  A    between atoms: _45  and  _47
REMARK   20  A    between atoms: _47  and  _48
REMARK   21  A    between atoms: _47  and  _50
REMARK   22  A    between atoms: _50  and  _51
REMARK   23  A    between atoms: _54  and  _56
REMARK   24  A    between atoms: _56  and  _57
REMARK   25  A    between atoms: _59  and  _61
REMARK   26  A    between atoms: _61  and  _62
REMARK   27  A    between atoms: _65  and  _67
REMARK   28  A    between atoms: _67  and  _68
REMARK   29  A    between atoms: _67  and  _70
REMARK   30  A    between atoms: _70  and  _71
REMARK   31  A    between atoms: _74  and  _76
REMARK   32  A    between atoms: _76  and  _77
REMARK   33  A    between atoms: _76  and  _79
REMARK   34  A    between atoms: _79  and  _80
REMARK   35  A    between atoms: _83  and  _85
REMARK   36  A    between atoms: _85  and  _86
REMARK   37  A    between atoms: _85  and  _88
REMARK   38  A    between atoms: _88  and  _89
REMARK   39  A    between atoms: _92  and  _94
REMARK   40  A    between atoms: _94  and  _95
REMARK   41  A    between atoms: _94  and  _97
REMARK   42  A    between atoms: _97  and  _98
REMARK   43  A    between atoms: _101  and  _103
REMARK   44  A    between atoms: _103  and  _104
REMARK   45  A    between atoms: _103  and  _106
REMARK   46  A    between atoms: _106  and  _107
REMARK   47  A    between atoms: _110  and  _112
REMARK   48  A    between atoms: _112  and  _113
REMARK   49  A    between atoms: _115  and  _117
REMARK   50  A    between atoms: _117  and  _118
REMARK   51  A    between atoms: _120  and  _122
REMARK   52  A    between atoms: _122  and  _123
REMARK   53  A    between atoms: _122  and  _125
REMARK   54  A    between atoms: _125  and  _126
REMARK   55  A    between atoms: _129  and  _131
REMARK   56  A    between atoms: _131  and  _132
REMARK   57  A    between atoms: _134  and  _136
REMARK   58  A    between atoms: _136  and  _137
REMARK   59  A    between atoms: _139  and  _141
REMARK   60  A    between atoms: _141  and  _142
REMARK   61  A    between atoms: _141  and  _144
REMARK   62  A    between atoms: _144  and  _145
REMARK   63  A    between atoms: _148  and  _150
REMARK   64  A    between atoms: _150  and  _151
REMARK   65  A    between atoms: _150  and  _153
REMARK   66  A    between atoms: _153  and  _154
REMARK   67  A    between atoms: _157  and  _159
REMARK   68  A    between atoms: _159  and  _160
REMARK   69  A    between atoms: _159  and  _162
REMARK   70  A    between atoms: _162  and  _163
REMARK   71  A    between atoms: _167  and  _168
REMARK   72  A    between atoms: _173  and  _175
REMARK   73  A    between atoms: _175  and  _176
REMARK   74  A    between atoms: _175  and  _178
REMARK   75  A    between atoms: _181  and  _183
REMARK   76  A    between atoms: _183  and  _184
REMARK   77  A    between atoms: _183  and  _186
REMARK   78  A    between atoms: _186  and  _187
REMARK   79  A    between atoms: _192  and  _194
REMARK   80  A    between atoms: _194  and  _195
REMARK   81  A    between atoms: _194  and  _197
REMARK   82  A    between atoms: _197  and  _198
REMARK   83  A    between atoms: _201  and  _203
REMARK   84  A    between atoms: _203  and  _204
REMARK   85  A    between atoms: _203  and  _206
REMARK   86  A    between atoms: _206  and  _207
REMARK   87  A    between atoms: _210  and  _212
REMARK   88  A    between atoms: _212  and  _213
REMARK   89  A    between atoms: _215  and  _217
REMARK   90  A    between atoms: _217  and  _218
REMARK   91  A    between atoms: _217  and  _220
REMARK   92  A    between atoms: _220  and  _221
REMARK   93  A    between atoms: _221  and  _222
REMARK   94  A    between atoms: _222  and  _223
REMARK   95  A    between atoms: _232  and  _234
REMARK   96  A    between atoms: _234  and  _235
REMARK   97  A    between atoms: _234  and  _237
REMARK   98  A    between atoms: _237  and  _238
REMARK   99  A    between atoms: _243  and  _245
REMARK  100  A    between atoms: _245  and  _246
REMARK  101  A    between atoms: _245  and  _248
REMARK  102  A    between atoms: _248  and  _249
REMARK  103  A    between atoms: _249  and  _250
REMARK  104  A    between atoms: _250  and  _251
REMARK  105  A    between atoms: _260  and  _262
REMARK  106  A    between atoms: _262  and  _263
REMARK  107  A    between atoms: _262  and  _265
REMARK  108  A    between atoms: _265  and  _266
REMARK  109  A    between atoms: _269  and  _271
REMARK  110  A    between atoms: _271  and  _272
REMARK  111  A    between atoms: _271  and  _274
REMARK  112  A    between atoms: _274  and  _275
REMARK  113  A    between atoms: _278  and  _280
REMARK  114  A    between atoms: _280  and  _281
REMARK  115  A    between atoms: _280  and  _283
REMARK  116  A    between atoms: _283  and  _284
REMARK  117  A    between atoms: _287  and  _289
REMARK  118  A    between atoms: _289  and  _290
REMARK  119  A    between atoms: _289  and  _292
REMARK  120  A    between atoms: _292  and  _293
REMARK  121  A    between atoms: _296  and  _298
REMARK  122  A    between atoms: _298  and  _299
REMARK  123  A    between atoms: _301  and  _303
REMARK  124  A    between atoms: _303  and  _304
REMARK  125  A    between atoms: _307  and  _309
REMARK  126  A    between atoms: _309  and  _310
REMARK  127  A    between atoms: _309  and  _312
REMARK  128  A    between atoms: _312  and  _313
REMARK  129  A    between atoms: _316  and  _318
REMARK  130  A    between atoms: _318  and  _319
REMARK  131  A    between atoms: _318  and  _321
REMARK  132  A    between atoms: _321  and  _322
REMARK  133  A    between atoms: _325  and  _327
REMARK  134  A    between atoms: _327  and  _328
REMARK  135  A    between atoms: _327  and  _330
REMARK  136  A    between atoms: _330  and  _331
REMARK  137  A    between atoms: _334  and  _336
REMARK  138  A    between atoms: _336  and  _337
REMARK  139  A    between atoms: _336  and  _339
REMARK  140  A    between atoms: _339  and  _340
REMARK  141  A    between atoms: _343  and  _345
REMARK  142  A    between atoms: _345  and  _346
REMARK  143  A    between atoms: _345  and  _348
REMARK  144  A    between atoms: _348  and  _349
REMARK  145  A    between atoms: _352  and  _354
REMARK  146  A    between atoms: _354  and  _355
REMARK  147  A    between atoms: _354  and  _357
REMARK  148  A    between atoms: _357  and  _358
REMARK  149  A    between atoms: _358  and  _359
REMARK  150  A    between atoms: _359  and  _360
REMARK  151  A    between atoms: _360  and  _361
REMARK  152  A    between atoms: _365  and  _367
REMARK  153  A    between atoms: _367  and  _368
REMARK  154  A    between atoms: _367  and  _370
REMARK  155  A    between atoms: _370  and  _371
REMARK  156  A    between atoms: _371  and  _372
REMARK  157  A    between atoms: _374  and  _376
REMARK  158  A    between atoms: _376  and  _377
REMARK  159  A    between atoms: _376  and  _379
REMARK  160  A    between atoms: _379  and  _380
REMARK  161  A    between atoms: _383  and  _385
REMARK  162  A    between atoms: _385  and  _386
REMARK  163  A    between atoms: _388  and  _390
REMARK  164  A    between atoms: _390  and  _391
REMARK  165  A    between atoms: _393  and  _395
REMARK  166  A    between atoms: _395  and  _396
REMARK  167  A    between atoms: _395  and  _398
REMARK  168  A    between atoms: _398  and  _399
REMARK  169  A    between atoms: _402  and  _404
REMARK  170  A    between atoms: _404  and  _405
REMARK  171  A    between atoms: _407  and  _409
REMARK  172  A    between atoms: _409  and  _410
REMARK  173  A    between atoms: _412  and  _414
REMARK  174  A    between atoms: _414  and  _415
REMARK  175  A    between atoms: _414  and  _417
REMARK  176  A    between atoms: _417  and  _418
REMARK  177  A    between atoms: _424  and  _426
REMARK  178  A    between atoms: _426  and  _427
REMARK  179  A    between atoms: _426  and  _429
REMARK  180  A    between atoms: _429  and  _430
REMARK  181  A    between atoms: _433  and  _435
REMARK  182  A    between atoms: _435  and  _436
REMARK  183  A    between atoms: _435  and  _438
REMARK  184  A    between atoms: _441  and  _443
REMARK  185  A    between atoms: _443  and  _444
REMARK  186  A    between atoms: _443  and  _446
REMARK  187  A    between atoms: _446  and  _447
REMARK  188  A    between atoms: _450  and  _452
REMARK  189  A    between atoms: _452  and  _453
REMARK  190  A    between atoms: _452  and  _455
REMARK  191  A    between atoms: _455  and  _456
REMARK  192  A    between atoms: _460  and  _461
REMARK  193  A    between atoms: _466  and  _468
REMARK  194  A    between atoms: _468  and  _469
REMARK  195  A    between atoms: _468  and  _471
REMARK  196  A    between atoms: _474  and  _476
REMARK  197  A    between atoms: _476  and  _477
REMARK  198  A    between atoms: _476  and  _479
REMARK  199  A    between atoms: _479  and  _480
REMARK  200  A    between atoms: _485  and  _487
REMARK  201  A    between atoms: _487  and  _488
REMARK  202  A    between atoms: _487  and  _490
REMARK  203  A    between atoms: _490  and  _491
REMARK  204  A    between atoms: _494  and  _496
REMARK  205  A    between atoms: _496  and  _497
REMARK  206  A    between atoms: _496  and  _499
REMARK  207  A    between atoms: _499  and  _500
REMARK  208  A    between atoms: _503  and  _505
REMARK  209  A    between atoms: _505  and  _506
REMARK  210  A    between atoms: _508  and  _510
REMARK  211  A    between atoms: _510  and  _511
REMARK  212  A    between atoms: _510  and  _513
REMARK  213  A    between atoms: _513  and  _514
REMARK  214  A    between atoms: _514  and  _515
REMARK  215  A    between atoms: _515  and  _516
REMARK  216  A    between atoms: _525  and  _527
REMARK  217  A    between atoms: _527  and  _528
REMARK  218  A    between atoms: _527  and  _530
REMARK  219  A    between atoms: _530  and  _531
REMARK                            x       y       z     vdW  Elec       q    Type
REMARK                         _______ _______ _______ _____ _____    ______ ____
ROOT
ATOM      1  O   HOH     1      13.699  37.672  19.555  0.00  0.00    +0.000 OA
ENDROOT
TORSDOF 0
REMARK  Name = ../refined-set-2016/4q1x/4q1x_pocket.pdb
REMARK  219 active torsions:
REMARK  status: ('A' for Active; 'I' for Inactive)
REMARK    1  A    between atoms: _1  and  _3
REMARK    2  A    between atoms: _3  and  _4
REMARK    3  A    between atoms: _3  and  _6
REMARK    4  A    between atoms: _6  and  _7
REMARK    5  A    between atoms: _7  and  _8
REMARK    6  A    between atoms: _8  and  _9
REMARK    7  A    between atoms: _18  and  _20
REMARK    8  A    between atoms: _20  and  _21
REMARK    9  A    between atoms: _20  and  _23
REMARK   10  A    between atoms: _23  and  _24
REMARK   11  A    between atoms: _27  and  _29
REMARK   12  A    between atoms: _29  and  _30
REMARK   13  A    between atoms: _29  and  _32
REMARK   14  A    between atoms: _32  and  _33
REMARK   15  A    between atoms: _36  and  _38
REMARK   16  A    between atoms: _38  and  _39
REMARK   17  A    between atoms: _38  and  _41
REMARK   18  A    between atoms: _41  and  _42
REMARK   19  A    between atoms: _45  and  _47
REMARK   20  A    between atoms: _47  and  _48
REMARK   21  A    between atoms: _47  and  _50
REMARK   22  A    between atoms: _50  and  _51
REMARK   23  A    between atoms: _54  and  _56
REMARK   24  A    between atoms: _56  and  _57
REMARK   25  A    between atoms: _59  and  _61
REMARK   26  A    between atoms: _61  and  _62
REMARK   27  A    between atoms: _65  and  _67
REMARK   28  A    between atoms: _67  and  _68
REMARK   29  A    between atoms: _67  and  _70
REMARK   30  A    between atoms: _70  and  _71
REMARK   31  A    between atoms: _74  and  _76
REMARK   32  A    between atoms: _76  and  _77
REMARK   33  A    between atoms: _76  and  _79
REMARK   34  A    between atoms: _79  and  _80
REMARK   35  A    between atoms: _83  and  _85
REMARK   36  A    between atoms: _85  and  _86
REMARK   37  A    between atoms: _85  and  _88
REMARK   38  A    between atoms: _88  and  _89
REMARK   39  A    between atoms: _92  and  _94
REMARK   40  A    between atoms: _94  and  _95
REMARK   41  A    between atoms: _94  and  _97
REMARK   42  A    between atoms: _97  and  _98
REMARK   43  A    between atoms: _101  and  _103
REMARK   44  A    between atoms: _103  and  _104
REMARK   45  A    between atoms: _103  and  _106
REMARK   46  A    between atoms: _106  and  _107
REMARK   47  A    between atoms: _110  and  _112
REMARK   48  A    between atoms: _112  and  _113
REMARK   49  A    between atoms: _115  and  _117
REMARK   50  A    between atoms: _117  and  _118
REMARK   51  A    between atoms: _120  and  _122
REMARK   52  A    between atoms: _122  and  _123
REMARK   53  A    between atoms: _122  and  _125
REMARK   54  A    between atoms: _125  and  _126
REMARK   55  A    between atoms: _129  and  _131
REMARK   56  A    between atoms: _131  and  _132
REMARK   57  A    between atoms: _134  and  _136
REMARK   58  A    between atoms: _136  and  _137
REMARK   59  A    between atoms: _139  and  _141
REMARK   60  A    between atoms: _141  and  _142
REMARK   61  A    between atoms: _141  and  _144
REMARK   62  A    between atoms: _144  and  _145
REMARK   63  A    between atoms: _148  and  _150
REMARK   64  A    between atoms: _150  and  _151
REMARK   65  A    between atoms: _150  and  _153
REMARK   66  A    between atoms: _153  and  _154
REMARK   67  A    between atoms: _157  and  _159
REMARK   68  A    between atoms: _159  and  _160
REMARK   69  A    between atoms: _159  and  _162
REMARK   70  A    between atoms: _162  and  _163
REMARK   71  A    between atoms: _167  and  _168
REMARK   72  A    between atoms: _173  and  _175
REMARK   73  A    between atoms: _175  and  _176
REMARK   74  A    between atoms: _175  and  _178
REMARK   75  A    between atoms: _181  and  _183
REMARK   76  A    between atoms: _183  and  _184
REMARK   77  A    between atoms: _183  and  _186
REMARK   78  A    between atoms: _186  and  _187
REMARK   79  A    between atoms: _192  and  _194
REMARK   80  A    between atoms: _194  and  _195
REMARK   81  A    between atoms: _194  and  _197
REMARK   82  A    between atoms: _197  and  _198
REMARK   83  A    between atoms: _201  and  _203
REMARK   84  A    between atoms: _203  and  _204
REMARK   85  A    between atoms: _203  and  _206
REMARK   86  A    between atoms: _206  and  _207
REMARK   87  A    between atoms: _210  and  _212
REMARK   88  A    between atoms: _212  and  _213
REMARK   89  A    between atoms: _215  and  _217
REMARK   90  A    between atoms: _217  and  _218
REMARK   91  A    between atoms: _217  and  _220
REMARK   92  A    between atoms: _220  and  _221
REMARK   93  A    between atoms: _221  and  _222
REMARK   94  A    between atoms: _222  and  _223
REMARK   95  A    between atoms: _232  and  _234
REMARK   96  A    between atoms: _234  and  _235
REMARK   97  A    between atoms: _234  and  _237
REMARK   98  A    between atoms: _237  and  _238
REMARK   99  A    between atoms: _243  and  _245
REMARK  100  A    between atoms: _245  and  _246
REMARK  101  A    between atoms: _245  and  _248
REMARK  102  A    between atoms: _248  and  _249
REMARK  103  A    between atoms: _249  and  _250
REMARK  104  A    between atoms: _250  and  _251
REMARK  105  A    between atoms: _260  and  _262
REMARK  106  A    between atoms: _262  and  _263
REMARK  107  A    between atoms: _262  and  _265
REMARK  108  A    between atoms: _265  and  _266
REMARK  109  A    between atoms: _269  and  _271
REMARK  110  A    between atoms: _271  and  _272
REMARK  111  A    between atoms: _271  and  _274
REMARK  112  A    between atoms: _274  and  _275
REMARK  113  A    between atoms: _278  and  _280
REMARK  114  A    between atoms: _280  and  _281
REMARK  115  A    between atoms: _280  and  _283
REMARK  116  A    between atoms: _283  and  _284
REMARK  117  A    between atoms: _287  and  _289
REMARK  118  A    between atoms: _289  and  _290
REMARK  119  A    between atoms: _289  and  _292
REMARK  120  A    between atoms: _292  and  _293
REMARK  121  A    between atoms: _296  and  _298
REMARK  122  A    between atoms: _298  and  _299
REMARK  123  A    between atoms: _301  and  _303
REMARK  124  A    between atoms: _303  and  _304
REMARK  125  A    between atoms: _307  and  _309
REMARK  126  A    between atoms: _309  and  _310
REMARK  127  A    between atoms: _309  and  _312
REMARK  128  A    between atoms: _312  and  _313
REMARK  129  A    between atoms: _316  and  _318
REMARK  130  A    between atoms: _318  and  _319
REMARK  131  A    between atoms: _318  and  _321
REMARK  132  A    between atoms: _321  and  _322
REMARK  133  A    between atoms: _325  and  _327
REMARK  134  A    between atoms: _327  and  _328
REMARK  135  A    between atoms: _327  and  _330
REMARK  136  A    between atoms: _330  and  _331
REMARK  137  A    between atoms: _334  and  _336
REMARK  138  A    between atoms: _336  and  _337
REMARK  139  A    between atoms: _336  and  _339
REMARK  140  A    between atoms: _339  and  _340
REMARK  141  A    between atoms: _343  and  _345
REMARK  142  A    between atoms: _345  and  _346
REMARK  143  A    between atoms: _345  and  _348
REMARK  144  A    between atoms: _348  and  _349
REMARK  145  A    between atoms: _352  and  _354
REMARK  146  A    between atoms: _354  and  _355
REMARK  147  A    between atoms: _354  and  _357
REMARK  148  A    between atoms: _357  and  _358
REMARK  149  A    between atoms: _358  and  _359
REMARK  150  A    between atoms: _359  and  _360
REMARK  151  A    between atoms: _360  and  _361
REMARK  152  A    between atoms: _365  and  _367
REMARK  153  A    between atoms: _367  and  _368
REMARK  154  A    between atoms: _367  and  _370
REMARK  155  A    between atoms: _370  and  _371
REMARK  156  A    between atoms: _371  and  _372
REMARK  157  A    between atoms: _374  and  _376
REMARK  158  A    between atoms: _376  and  _377
REMARK  159  A    between atoms: _376  and  _379
REMARK  160  A    between atoms: _379  and  _380
REMARK  161  A    between atoms: _383  and  _385
REMARK  162  A    between atoms: _385  and  _386
REMARK  163  A    between atoms: _388  and  _390
REMARK  164  A    between atoms: _390  and  _391
REMARK  165  A    between atoms: _393  and  _395
REMARK  166  A    between atoms: _395  and  _396
REMARK  167  A    between atoms: _395  and  _398
REMARK  168  A    between atoms: _398  and  _399
REMARK  169  A    between atoms: _402  and  _404
REMARK  170  A    between atoms: _404  and  _405
REMARK  171  A    between atoms: _407  and  _409
REMARK  172  A    between atoms: _409  and  _410
REMARK  173  A    between atoms: _412  and  _414
REMARK  174  A    between atoms: _414  and  _415
REMARK  175  A    between atoms: _414  and  _417
REMARK  176  A    between atoms: _417  and  _418
REMARK  177  A    between atoms: _424  and  _426
REMARK  178  A    between atoms: _426  and  _427
REMARK  179  A    between atoms: _426  and  _429
REMARK  180  A    between atoms: _429  and  _430
REMARK  181  A    between atoms: _433  and  _435
REMARK  182  A    between atoms: _435  and  _436
REMARK  183  A    between atoms: _435  and  _438
REMARK  184  A    between atoms: _441  and  _443
REMARK  185  A    between atoms: _443  and  _444
REMARK  186  A    between atoms: _443  and  _446
REMARK  187  A    between atoms: _446  and  _447
REMARK  188  A    between atoms: _450  and  _452
REMARK  189  A    between atoms: _452  and  _453
REMARK  190  A    between atoms: _452  and  _455
REMARK  191  A    between atoms: _455  and  _456
REMARK  192  A    between atoms: _460  and  _461
REMARK  193  A    between atoms: _466  and  _468
REMARK  194  A    between atoms: _468  and  _469
REMARK  195  A    between atoms: _468  and  _471
REMARK  196  A    between atoms: _474  and  _476
REMARK  197  A    between atoms: _476  and  _477
REMARK  198  A    between atoms: _476  and  _479
REMARK  199  A    between atoms: _479  and  _480
REMARK  200  A    between atoms: _485  and  _487
REMARK  201  A    between atoms: _487  and  _488
REMARK  202  A    between atoms: _487  and  _490
REMARK  203  A    between atoms: _490  and  _491
REMARK  204  A    between atoms: _494  and  _496
REMARK  205  A    between atoms: _496  and  _497
REMARK  206  A    between atoms: _496  and  _499
REMARK  207  A    between atoms: _499  and  _500
REMARK  208  A    between atoms: _503  and  _505
REMARK  209  A    between atoms: _505  and  _506
REMARK  210  A    between atoms: _508  and  _510
REMARK  211  A    between atoms: _510  and  _511
REMARK  212  A    between atoms: _510  and  _513
REMARK  213  A    between atoms: _513  and  _514
REMARK  214  A    between atoms: _514  and  _515
REMARK  215  A    between atoms: _515  and  _516
REMARK  216  A    between atoms: _525  and  _527
REMARK  217  A    between atoms: _527  and  _528
REMARK  218  A    between atoms: _527  and  _530
REMARK  219  A    between atoms: _530  and  _531
REMARK                            x       y       z     vdW  Elec       q    Type
REMARK                         _______ _______ _______ _____ _____    ______ ____
ROOT
ATOM      1  O   HOH     1      19.915  32.323  23.342  0.00  0.00    +0.000 OA
ENDROOT
TORSDOF 0
REMARK  Name = ../refined-set-2016/4q1x/4q1x_pocket.pdb
REMARK  219 active torsions:
REMARK  status: ('A' for Active; 'I' for Inactive)
REMARK    1  A    between atoms: _1  and  _3
REMARK    2  A    between atoms: _3  and  _4
REMARK    3  A    between atoms: _3  and  _6
REMARK    4  A    between atoms: _6  and  _7
REMARK    5  A    between atoms: _7  and  _8
REMARK    6  A    between atoms: _8  and  _9
REMARK    7  A    between atoms: _18  and  _20
REMARK    8  A    between atoms: _20  and  _21
REMARK    9  A    between atoms: _20  and  _23
REMARK   10  A    between atoms: _23  and  _24
REMARK   11  A    between atoms: _27  and  _29
REMARK   12  A    between atoms: _29  and  _30
REMARK   13  A    between atoms: _29  and  _32
REMARK   14  A    between atoms: _32  and  _33
REMARK   15  A    between atoms: _36  and  _38
REMARK   16  A    between atoms: _38  and  _39
REMARK   17  A    between atoms: _38  and  _41
REMARK   18  A    between atoms: _41  and  _42
REMARK   19  A    between atoms: _45  and  _47
REMARK   20  A    between atoms: _47  and  _48
REMARK   21  A    between atoms: _47  and  _50
REMARK   22  A    between atoms: _50  and  _51
REMARK   23  A    between atoms: _54  and  _56
REMARK   24  A    between atoms: _56  and  _57
REMARK   25  A    between atoms: _59  and  _61
REMARK   26  A    between atoms: _61  and  _62
REMARK   27  A    between atoms: _65  and  _67
REMARK   28  A    between atoms: _67  and  _68
REMARK   29  A    between atoms: _67  and  _70
REMARK   30  A    between atoms: _70  and  _71
REMARK   31  A    between atoms: _74  and  _76
REMARK   32  A    between atoms: _76  and  _77
REMARK   33  A    between atoms: _76  and  _79
REMARK   34  A    between atoms: _79  and  _80
REMARK   35  A    between atoms: _83  and  _85
REMARK   36  A    between atoms: _85  and  _86
REMARK   37  A    between atoms: _85  and  _88
REMARK   38  A    between atoms: _88  and  _89
REMARK   39  A    between atoms: _92  and  _94
REMARK   40  A    between atoms: _94  and  _95
REMARK   41  A    between atoms: _94  and  _97
REMARK   42  A    between atoms: _97  and  _98
REMARK   43  A    between atoms: _101  and  _103
REMARK   44  A    between atoms: _103  and  _104
REMARK   45  A    between atoms: _103  and  _106
REMARK   46  A    between atoms: _106  and  _107
REMARK   47  A    between atoms: _110  and  _112
REMARK   48  A    between atoms: _112  and  _113
REMARK   49  A    between atoms: _115  and  _117
REMARK   50  A    between atoms: _117  and  _118
REMARK   51  A    between atoms: _120  and  _122
REMARK   52  A    between atoms: _122  and  _123
REMARK   53  A    between atoms: _122  and  _125
REMARK   54  A    between atoms: _125  and  _126
REMARK   55  A    between atoms: _129  and  _131
REMARK   56  A    between atoms: _131  and  _132
REMARK   57  A    between atoms: _134  and  _136
REMARK   58  A    between atoms: _136  and  _137
REMARK   59  A    between atoms: _139  and  _141
REMARK   60  A    between atoms: _141  and  _142
REMARK   61  A    between atoms: _141  and  _144
REMARK   62  A    between atoms: _144  and  _145
REMARK   63  A    between atoms: _148  and  _150
REMARK   64  A    between atoms: _150  and  _151
REMARK   65  A    between atoms: _150  and  _153
REMARK   66  A    between atoms: _153  and  _154
REMARK   67  A    between atoms: _157  and  _159
REMARK   68  A    between atoms: _159  and  _160
REMARK   69  A    between atoms: _159  and  _162
REMARK   70  A    between atoms: _162  and  _163
REMARK   71  A    between atoms: _167  and  _168
REMARK   72  A    between atoms: _173  and  _175
REMARK   73  A    between atoms: _175  and  _176
REMARK   74  A    between atoms: _175  and  _178
REMARK   75  A    between atoms: _181  and  _183
REMARK   76  A    between atoms: _183  and  _184
REMARK   77  A    between atoms: _183  and  _186
REMARK   78  A    between atoms: _186  and  _187
REMARK   79  A    between atoms: _192  and  _194
REMARK   80  A    between atoms: _194  and  _195
REMARK   81  A    between atoms: _194  and  _197
REMARK   82  A    between atoms: _197  and  _198
REMARK   83  A    between atoms: _201  and  _203
REMARK   84  A    between atoms: _203  and  _204
REMARK   85  A    between atoms: _203  and  _206
REMARK   86  A    between atoms: _206  and  _207
REMARK   87  A    between atoms: _210  and  _212
REMARK   88  A    between atoms: _212  and  _213
REMARK   89  A    between atoms: _215  and  _217
REMARK   90  A    between atoms: _217  and  _218
REMARK   91  A    between atoms: _217  and  _220
REMARK   92  A    between atoms: _220  and  _221
REMARK   93  A    between atoms: _221  and  _222
REMARK   94  A    between atoms: _222  and  _223
REMARK   95  A    between atoms: _232  and  _234
REMARK   96  A    between atoms: _234  and  _235
REMARK   97  A    between atoms: _234  and  _237
REMARK   98  A    between atoms: _237  and  _238
REMARK   99  A    between atoms: _243  and  _245
REMARK  100  A    between atoms: _245  and  _246
REMARK  101  A    between atoms: _245  and  _248
REMARK  102  A    between atoms: _248  and  _249
REMARK  103  A    between atoms: _249  and  _250
REMARK  104  A    between atoms: _250  and  _251
REMARK  105  A    between atoms: _260  and  _262
REMARK  106  A    between atoms: _262  and  _263
REMARK  107  A    between atoms: _262  and  _265
REMARK  108  A    between atoms: _265  and  _266
REMARK  109  A    between atoms: _269  and  _271
REMARK  110  A    between atoms: _271  and  _272
REMARK  111  A    between atoms: _271  and  _274
REMARK  112  A    between atoms: _274  and  _275
REMARK  113  A    between atoms: _278  and  _280
REMARK  114  A    between atoms: _280  and  _281
REMARK  115  A    between atoms: _280  and  _283
REMARK  116  A    between atoms: _283  and  _284
REMARK  117  A    between atoms: _287  and  _289
REMARK  118  A    between atoms: _289  and  _290
REMARK  119  A    between atoms: _289  and  _292
REMARK  120  A    between atoms: _292  and  _293
REMARK  121  A    between atoms: _296  and  _298
REMARK  122  A    between atoms: _298  and  _299
REMARK  123  A    between atoms: _301  and  _303
REMARK  124  A    between atoms: _303  and  _304
REMARK  125  A    between atoms: _307  and  _309
REMARK  126  A    between atoms: _309  and  _310
REMARK  127  A    between atoms: _309  and  _312
REMARK  128  A    between atoms: _312  and  _313
REMARK  129  A    between atoms: _316  and  _318
REMARK  130  A    between atoms: _318  and  _319
REMARK  131  A    between atoms: _318  and  _321
REMARK  132  A    between atoms: _321  and  _322
REMARK  133  A    between atoms: _325  and  _327
REMARK  134  A    between atoms: _327  and  _328
REMARK  135  A    between atoms: _327  and  _330
REMARK  136  A    between atoms: _330  and  _331
REMARK  137  A    between atoms: _334  and  _336
REMARK  138  A    between atoms: _336  and  _337
REMARK  139  A    between atoms: _336  and  _339
REMARK  140  A    between atoms: _339  and  _340
REMARK  141  A    between atoms: _343  and  _345
REMARK  142  A    between atoms: _345  and  _346
REMARK  143  A    between atoms: _345  and  _348
REMARK  144  A    between atoms: _348  and  _349
REMARK  145  A    between atoms: _352  and  _354
REMARK  146  A    between atoms: _354  and  _355
REMARK  147  A    between atoms: _354  and  _357
REMARK  148  A    between atoms: _357  and  _358
REMARK  149  A    between atoms: _358  and  _359
REMARK  150  A    between atoms: _359  and  _360
REMARK  151  A    between atoms: _360  and  _361
REMARK  152  A    between atoms: _365  and  _367
REMARK  153  A    between atoms: _367  and  _368
REMARK  154  A    between atoms: _367  and  _370
REMARK  155  A    between atoms: _370  and  _371
REMARK  156  A    between atoms: _371  and  _372
REMARK  157  A    between atoms: _374  and  _376
REMARK  158  A    between atoms: _376  and  _377
REMARK  159  A    between atoms: _376  and  _379
REMARK  160  A    between atoms: _379  and  _380
REMARK  161  A    between atoms: _383  and  _385
REMARK  162  A    between atoms: _385  and  _386
REMARK  163  A    between atoms: _388  and  _390
REMARK  164  A    between atoms: _390  and  _391
REMARK  165  A    between atoms: _393  and  _395
REMARK  166  A    between atoms: _395  and  _396
REMARK  167  A    between atoms: _395  and  _398
REMARK  168  A    between atoms: _398  and  _399
REMARK  169  A    between atoms: _402  and  _404
REMARK  170  A    between atoms: _404  and  _405
REMARK  171  A    between atoms: _407  and  _409
REMARK  172  A    between atoms: _409  and  _410
REMARK  173  A    between atoms: _412  and  _414
REMARK  174  A    between atoms: _414  and  _415
REMARK  175  A    between atoms: _414  and  _417
REMARK  176  A    between atoms: _417  and  _418
REMARK  177  A    between atoms: _424  and  _426
REMARK  178  A    between atoms: _426  and  _427
REMARK  179  A    between atoms: _426  and  _429
REMARK  180  A    between atoms: _429  and  _430
REMARK  181  A    between atoms: _433  and  _435
REMARK  182  A    between atoms: _435  and  _436
REMARK  183  A    between atoms: _435  and  _438
REMARK  184  A    between atoms: _441  and  _443
REMARK  185  A    between atoms: _443  and  _444
REMARK  186  A    between atoms: _443  and  _446
REMARK  187  A    between atoms: _446  and  _447
REMARK  188  A    between atoms: _450  and  _452
REMARK  189  A    between atoms: _452  and  _453
REMARK  190  A    between atoms: _452  and  _455
REMARK  191  A    between atoms: _455  and  _456
REMARK  192  A    between atoms: _460  and  _461
REMARK  193  A    between atoms: _466  and  _468
REMARK  194  A    between atoms: _468  and  _469
REMARK  195  A    between atoms: _468  and  _471
REMARK  196  A    between atoms: _474  and  _476
REMARK  197  A    between atoms: _476  and  _477
REMARK  198  A    between atoms: _476  and  _479
REMARK  199  A    between atoms: _479  and  _480
REMARK  200  A    between atoms: _485  and  _487
REMARK  201  A    between atoms: _487  and  _488
REMARK  202  A    between atoms: _487  and  _490
REMARK  203  A    between atoms: _490  and  _491
REMARK  204  A    between atoms: _494  and  _496
REMARK  205  A    between atoms: _496  and  _497
REMARK  206  A    between atoms: _496  and  _499
REMARK  207  A    between atoms: _499  and  _500
REMARK  208  A    between atoms: _503  and  _505
REMARK  209  A    between atoms: _505  and  _506
REMARK  210  A    between atoms: _508  and  _510
REMARK  211  A    between atoms: _510  and  _511
REMARK  212  A    between atoms: _510  and  _513
REMARK  213  A    between atoms: _513  and  _514
REMARK  214  A    between atoms: _514  and  _515
REMARK  215  A    between atoms: _515  and  _516
REMARK  216  A    between atoms: _525  and  _527
REMARK  217  A    between atoms: _527  and  _528
REMARK  218  A    between atoms: _527  and  _530
REMARK  219  A    between atoms: _530  and  _531
REMARK                            x       y       z     vdW  Elec       q    Type
REMARK                         _______ _______ _______ _____ _____    ______ ____
ROOT
ATOM      1  O   HOH     1      20.317  34.281  21.630  0.00  0.00    +0.000 OA
ENDROOT
TORSDOF 0
REMARK  Name = ../refined-set-2016/4q1x/4q1x_pocket.pdb
REMARK  219 active torsions:
REMARK  status: ('A' for Active; 'I' for Inactive)
REMARK    1  A    between atoms: _1  and  _3
REMARK    2  A    between atoms: _3  and  _4
REMARK    3  A    between atoms: _3  and  _6
REMARK    4  A    between atoms: _6  and  _7
REMARK    5  A    between atoms: _7  and  _8
REMARK    6  A    between atoms: _8  and  _9
REMARK    7  A    between atoms: _18  and  _20
REMARK    8  A    between atoms: _20  and  _21
REMARK    9  A    between atoms: _20  and  _23
REMARK   10  A    between atoms: _23  and  _24
REMARK   11  A    between atoms: _27  and  _29
REMARK   12  A    between atoms: _29  and  _30
REMARK   13  A    between atoms: _29  and  _32
REMARK   14  A    between atoms: _32  and  _33
REMARK   15  A    between atoms: _36  and  _38
REMARK   16  A    between atoms: _38  and  _39
REMARK   17  A    between atoms: _38  and  _41
REMARK   18  A    between atoms: _41  and  _42
REMARK   19  A    between atoms: _45  and  _47
REMARK   20  A    between atoms: _47  and  _48
REMARK   21  A    between atoms: _47  and  _50
REMARK   22  A    between atoms: _50  and  _51
REMARK   23  A    between atoms: _54  and  _56
REMARK   24  A    between atoms: _56  and  _57
REMARK   25  A    between atoms: _59  and  _61
REMARK   26  A    between atoms: _61  and  _62
REMARK   27  A    between atoms: _65  and  _67
REMARK   28  A    between atoms: _67  and  _68
REMARK   29  A    between atoms: _67  and  _70
REMARK   30  A    between atoms: _70  and  _71
REMARK   31  A    between atoms: _74  and  _76
REMARK   32  A    between atoms: _76  and  _77
REMARK   33  A    between atoms: _76  and  _79
REMARK   34  A    between atoms: _79  and  _80
REMARK   35  A    between atoms: _83  and  _85
REMARK   36  A    between atoms: _85  and  _86
REMARK   37  A    between atoms: _85  and  _88
REMARK   38  A    between atoms: _88  and  _89
REMARK   39  A    between atoms: _92  and  _94
REMARK   40  A    between atoms: _94  and  _95
REMARK   41  A    between atoms: _94  and  _97
REMARK   42  A    between atoms: _97  and  _98
REMARK   43  A    between atoms: _101  and  _103
REMARK   44  A    between atoms: _103  and  _104
REMARK   45  A    between atoms: _103  and  _106
REMARK   46  A    between atoms: _106  and  _107
REMARK   47  A    between atoms: _110  and  _112
REMARK   48  A    between atoms: _112  and  _113
REMARK   49  A    between atoms: _115  and  _117
REMARK   50  A    between atoms: _117  and  _118
REMARK   51  A    between atoms: _120  and  _122
REMARK   52  A    between atoms: _122  and  _123
REMARK   53  A    between atoms: _122  and  _125
REMARK   54  A    between atoms: _125  and  _126
REMARK   55  A    between atoms: _129  and  _131
REMARK   56  A    between atoms: _131  and  _132
REMARK   57  A    between atoms: _134  and  _136
REMARK   58  A    between atoms: _136  and  _137
REMARK   59  A    between atoms: _139  and  _141
REMARK   60  A    between atoms: _141  and  _142
REMARK   61  A    between atoms: _141  and  _144
REMARK   62  A    between atoms: _144  and  _145
REMARK   63  A    between atoms: _148  and  _150
REMARK   64  A    between atoms: _150  and  _151
REMARK   65  A    between atoms: _150  and  _153
REMARK   66  A    between atoms: _153  and  _154
REMARK   67  A    between atoms: _157  and  _159
REMARK   68  A    between atoms: _159  and  _160
REMARK   69  A    between atoms: _159  and  _162
REMARK   70  A    between atoms: _162  and  _163
REMARK   71  A    between atoms: _167  and  _168
REMARK   72  A    between atoms: _173  and  _175
REMARK   73  A    between atoms: _175  and  _176
REMARK   74  A    between atoms: _175  and  _178
REMARK   75  A    between atoms: _181  and  _183
REMARK   76  A    between atoms: _183  and  _184
REMARK   77  A    between atoms: _183  and  _186
REMARK   78  A    between atoms: _186  and  _187
REMARK   79  A    between atoms: _192  and  _194
REMARK   80  A    between atoms: _194  and  _195
REMARK   81  A    between atoms: _194  and  _197
REMARK   82  A    between atoms: _197  and  _198
REMARK   83  A    between atoms: _201  and  _203
REMARK   84  A    between atoms: _203  and  _204
REMARK   85  A    between atoms: _203  and  _206
REMARK   86  A    between atoms: _206  and  _207
REMARK   87  A    between atoms: _210  and  _212
REMARK   88  A    between atoms: _212  and  _213
REMARK   89  A    between atoms: _215  and  _217
REMARK   90  A    between atoms: _217  and  _218
REMARK   91  A    between atoms: _217  and  _220
REMARK   92  A    between atoms: _220  and  _221
REMARK   93  A    between atoms: _221  and  _222
REMARK   94  A    between atoms: _222  and  _223
REMARK   95  A    between atoms: _232  and  _234
REMARK   96  A    between atoms: _234  and  _235
REMARK   97  A    between atoms: _234  and  _237
REMARK   98  A    between atoms: _237  and  _238
REMARK   99  A    between atoms: _243  and  _245
REMARK  100  A    between atoms: _245  and  _246
REMARK  101  A    between atoms: _245  and  _248
REMARK  102  A    between atoms: _248  and  _249
REMARK  103  A    between atoms: _249  and  _250
REMARK  104  A    between atoms: _250  and  _251
REMARK  105  A    between atoms: _260  and  _262
REMARK  106  A    between atoms: _262  and  _263
REMARK  107  A    between atoms: _262  and  _265
REMARK  108  A    between atoms: _265  and  _266
REMARK  109  A    between atoms: _269  and  _271
REMARK  110  A    between atoms: _271  and  _272
REMARK  111  A    between atoms: _271  and  _274
REMARK  112  A    between atoms: _274  and  _275
REMARK  113  A    between atoms: _278  and  _280
REMARK  114  A    between atoms: _280  and  _281
REMARK  115  A    between atoms: _280  and  _283
REMARK  116  A    between atoms: _283  and  _284
REMARK  117  A    between atoms: _287  and  _289
REMARK  118  A    between atoms: _289  and  _290
REMARK  119  A    between atoms: _289  and  _292
REMARK  120  A    between atoms: _292  and  _293
REMARK  121  A    between atoms: _296  and  _298
REMARK  122  A    between atoms: _298  and  _299
REMARK  123  A    between atoms: _301  and  _303
REMARK  124  A    between atoms: _303  and  _304
REMARK  125  A    between atoms: _307  and  _309
REMARK  126  A    between atoms: _309  and  _310
REMARK  127  A    between atoms: _309  and  _312
REMARK  128  A    between atoms: _312  and  _313
REMARK  129  A    between atoms: _316  and  _318
REMARK  130  A    between atoms: _318  and  _319
REMARK  131  A    between atoms: _318  and  _321
REMARK  132  A    between atoms: _321  and  _322
REMARK  133  A    between atoms: _325  and  _327
REMARK  134  A    between atoms: _327  and  _328
REMARK  135  A    between atoms: _327  and  _330
REMARK  136  A    between atoms: _330  and  _331
REMARK  137  A    between atoms: _334  and  _336
REMARK  138  A    between atoms: _336  and  _337
REMARK  139  A    between atoms: _336  and  _339
REMARK  140  A    between atoms: _339  and  _340
REMARK  141  A    between atoms: _343  and  _345
REMARK  142  A    between atoms: _345  and  _346
REMARK  143  A    between atoms: _345  and  _348
REMARK  144  A    between atoms: _348  and  _349
REMARK  145  A    between atoms: _352  and  _354
REMARK  146  A    between atoms: _354  and  _355
REMARK  147  A    between atoms: _354  and  _357
REMARK  148  A    between atoms: _357  and  _358
REMARK  149  A    between atoms: _358  and  _359
REMARK  150  A    between atoms: _359  and  _360
REMARK  151  A    between atoms: _360  and  _361
REMARK  152  A    between atoms: _365  and  _367
REMARK  153  A    between atoms: _367  and  _368
REMARK  154  A    between atoms: _367  and  _370
REMARK  155  A    between atoms: _370  and  _371
REMARK  156  A    between atoms: _371  and  _372
REMARK  157  A    between atoms: _374  and  _376
REMARK  158  A    between atoms: _376  and  _377
REMARK  159  A    between atoms: _376  and  _379
REMARK  160  A    between atoms: _379  and  _380
REMARK  161  A    between atoms: _383  and  _385
REMARK  162  A    between atoms: _385  and  _386
REMARK  163  A    between atoms: _388  and  _390
REMARK  164  A    between atoms: _390  and  _391
REMARK  165  A    between atoms: _393  and  _395
REMARK  166  A    between atoms: _395  and  _396
REMARK  167  A    between atoms: _395  and  _398
REMARK  168  A    between atoms: _398  and  _399
REMARK  169  A    between atoms: _402  and  _404
REMARK  170  A    between atoms: _404  and  _405
REMARK  171  A    between atoms: _407  and  _409
REMARK  172  A    between atoms: _409  and  _410
REMARK  173  A    between atoms: _412  and  _414
REMARK  174  A    between atoms: _414  and  _415
REMARK  175  A    between atoms: _414  and  _417
REMARK  176  A    between atoms: _417  and  _418
REMARK  177  A    between atoms: _424  and  _426
REMARK  178  A    between atoms: _426  and  _427
REMARK  179  A    between atoms: _426  and  _429
REMARK  180  A    between atoms: _429  and  _430
REMARK  181  A    between atoms: _433  and  _435
REMARK  182  A    between atoms: _435  and  _436
REMARK  183  A    between atoms: _435  and  _438
REMARK  184  A    between atoms: _441  and  _443
REMARK  185  A    between atoms: _443  and  _444
REMARK  186  A    between atoms: _443  and  _446
REMARK  187  A    between atoms: _446  and  _447
REMARK  188  A    between atoms: _450  and  _452
REMARK  189  A    between atoms: _452  and  _453
REMARK  190  A    between atoms: _452  and  _455
REMARK  191  A    between atoms: _455  and  _456
REMARK  192  A    between atoms: _460  and  _461
REMARK  193  A    between atoms: _466  and  _468
REMARK  194  A    between atoms: _468  and  _469
REMARK  195  A    between atoms: _468  and  _471
REMARK  196  A    between atoms: _474  and  _476
REMARK  197  A    between atoms: _476  and  _477
REMARK  198  A    between atoms: _476  and  _479
REMARK  199  A    between atoms: _479  and  _480
REMARK  200  A    between atoms: _485  and  _487
REMARK  201  A    between atoms: _487  and  _488
REMARK  202  A    between atoms: _487  and  _490
REMARK  203  A    between atoms: _490  and  _491
REMARK  204  A    between atoms: _494  and  _496
REMARK  205  A    between atoms: _496  and  _497
REMARK  206  A    between atoms: _496  and  _499
REMARK  207  A    between atoms: _499  and  _500
REMARK  208  A    between atoms: _503  and  _505
REMARK  209  A    between atoms: _505  and  _506
REMARK  210  A    between atoms: _508  and  _510
REMARK  211  A    between atoms: _510  and  _511
REMARK  212  A    between atoms: _510  and  _513
REMARK  213  A    between atoms: _513  and  _514
REMARK  214  A    between atoms: _514  and  _515
REMARK  215  A    between atoms: _515  and  _516
REMARK  216  A    between atoms: _525  and  _527
REMARK  217  A    between atoms: _527  and  _528
REMARK  218  A    between atoms: _527  and  _530
REMARK  219  A    between atoms: _530  and  _531
REMARK                            x       y       z     vdW  Elec       q    Type
REMARK                         _______ _______ _______ _____ _____    ______ ____
ROOT
ATOM      1  O   HOH     1      18.263  34.741  19.317  0.00  0.00    +0.000 OA
ENDROOT
TORSDOF 0
REMARK  Name = ../refined-set-2016/4q1x/4q1x_pocket.pdb
REMARK  219 active torsions:
REMARK  status: ('A' for Active; 'I' for Inactive)
REMARK    1  A    between atoms: _1  and  _3
REMARK    2  A    between atoms: _3  and  _4
REMARK    3  A    between atoms: _3  and  _6
REMARK    4  A    between atoms: _6  and  _7
REMARK    5  A    between atoms: _7  and  _8
REMARK    6  A    between atoms: _8  and  _9
REMARK    7  A    between atoms: _18  and  _20
REMARK    8  A    between atoms: _20  and  _21
REMARK    9  A    between atoms: _20  and  _23
REMARK   10  A    between atoms: _23  and  _24
REMARK   11  A    between atoms: _27  and  _29
REMARK   12  A    between atoms: _29  and  _30
REMARK   13  A    between atoms: _29  and  _32
REMARK   14  A    between atoms: _32  and  _33
REMARK   15  A    between atoms: _36  and  _38
REMARK   16  A    between atoms: _38  and  _39
REMARK   17  A    between atoms: _38  and  _41
REMARK   18  A    between atoms: _41  and  _42
REMARK   19  A    between atoms: _45  and  _47
REMARK   20  A    between atoms: _47  and  _48
REMARK   21  A    between atoms: _47  and  _50
REMARK   22  A    between atoms: _50  and  _51
REMARK   23  A    between atoms: _54  and  _56
REMARK   24  A    between atoms: _56  and  _57
REMARK   25  A    between atoms: _59  and  _61
REMARK   26  A    between atoms: _61  and  _62
REMARK   27  A    between atoms: _65  and  _67
REMARK   28  A    between atoms: _67  and  _68
REMARK   29  A    between atoms: _67  and  _70
REMARK   30  A    between atoms: _70  and  _71
REMARK   31  A    between atoms: _74  and  _76
REMARK   32  A    between atoms: _76  and  _77
REMARK   33  A    between atoms: _76  and  _79
REMARK   34  A    between atoms: _79  and  _80
REMARK   35  A    between atoms: _83  and  _85
REMARK   36  A    between atoms: _85  and  _86
REMARK   37  A    between atoms: _85  and  _88
REMARK   38  A    between atoms: _88  and  _89
REMARK   39  A    between atoms: _92  and  _94
REMARK   40  A    between atoms: _94  and  _95
REMARK   41  A    between atoms: _94  and  _97
REMARK   42  A    between atoms: _97  and  _98
REMARK   43  A    between atoms: _101  and  _103
REMARK   44  A    between atoms: _103  and  _104
REMARK   45  A    between atoms: _103  and  _106
REMARK   46  A    between atoms: _106  and  _107
REMARK   47  A    between atoms: _110  and  _112
REMARK   48  A    between atoms: _112  and  _113
REMARK   49  A    between atoms: _115  and  _117
REMARK   50  A    between atoms: _117  and  _118
REMARK   51  A    between atoms: _120  and  _122
REMARK   52  A    between atoms: _122  and  _123
REMARK   53  A    between atoms: _122  and  _125
REMARK   54  A    between atoms: _125  and  _126
REMARK   55  A    between atoms: _129  and  _131
REMARK   56  A    between atoms: _131  and  _132
REMARK   57  A    between atoms: _134  and  _136
REMARK   58  A    between atoms: _136  and  _137
REMARK   59  A    between atoms: _139  and  _141
REMARK   60  A    between atoms: _141  and  _142
REMARK   61  A    between atoms: _141  and  _144
REMARK   62  A    between atoms: _144  and  _145
REMARK   63  A    between atoms: _148  and  _150
REMARK   64  A    between atoms: _150  and  _151
REMARK   65  A    between atoms: _150  and  _153
REMARK   66  A    between atoms: _153  and  _154
REMARK   67  A    between atoms: _157  and  _159
REMARK   68  A    between atoms: _159  and  _160
REMARK   69  A    between atoms: _159  and  _162
REMARK   70  A    between atoms: _162  and  _163
REMARK   71  A    between atoms: _167  and  _168
REMARK   72  A    between atoms: _173  and  _175
REMARK   73  A    between atoms: _175  and  _176
REMARK   74  A    between atoms: _175  and  _178
REMARK   75  A    between atoms: _181  and  _183
REMARK   76  A    between atoms: _183  and  _184
REMARK   77  A    between atoms: _183  and  _186
REMARK   78  A    between atoms: _186  and  _187
REMARK   79  A    between atoms: _192  and  _194
REMARK   80  A    between atoms: _194  and  _195
REMARK   81  A    between atoms: _194  and  _197
REMARK   82  A    between atoms: _197  and  _198
REMARK   83  A    between atoms: _201  and  _203
REMARK   84  A    between atoms: _203  and  _204
REMARK   85  A    between atoms: _203  and  _206
REMARK   86  A    between atoms: _206  and  _207
REMARK   87  A    between atoms: _210  and  _212
REMARK   88  A    between atoms: _212  and  _213
REMARK   89  A    between atoms: _215  and  _217
REMARK   90  A    between atoms: _217  and  _218
REMARK   91  A    between atoms: _217  and  _220
REMARK   92  A    between atoms: _220  and  _221
REMARK   93  A    between atoms: _221  and  _222
REMARK   94  A    between atoms: _222  and  _223
REMARK   95  A    between atoms: _232  and  _234
REMARK   96  A    between atoms: _234  and  _235
REMARK   97  A    between atoms: _234  and  _237
REMARK   98  A    between atoms: _237  and  _238
REMARK   99  A    between atoms: _243  and  _245
REMARK  100  A    between atoms: _245  and  _246
REMARK  101  A    between atoms: _245  and  _248
REMARK  102  A    between atoms: _248  and  _249
REMARK  103  A    between atoms: _249  and  _250
REMARK  104  A    between atoms: _250  and  _251
REMARK  105  A    between atoms: _260  and  _262
REMARK  106  A    between atoms: _262  and  _263
REMARK  107  A    between atoms: _262  and  _265
REMARK  108  A    between atoms: _265  and  _266
REMARK  109  A    between atoms: _269  and  _271
REMARK  110  A    between atoms: _271  and  _272
REMARK  111  A    between atoms: _271  and  _274
REMARK  112  A    between atoms: _274  and  _275
REMARK  113  A    between atoms: _278  and  _280
REMARK  114  A    between atoms: _280  and  _281
REMARK  115  A    between atoms: _280  and  _283
REMARK  116  A    between atoms: _283  and  _284
REMARK  117  A    between atoms: _287  and  _289
REMARK  118  A    between atoms: _289  and  _290
REMARK  119  A    between atoms: _289  and  _292
REMARK  120  A    between atoms: _292  and  _293
REMARK  121  A    between atoms: _296  and  _298
REMARK  122  A    between atoms: _298  and  _299
REMARK  123  A    between atoms: _301  and  _303
REMARK  124  A    between atoms: _303  and  _304
REMARK  125  A    between atoms: _307  and  _309
REMARK  126  A    between atoms: _309  and  _310
REMARK  127  A    between atoms: _309  and  _312
REMARK  128  A    between atoms: _312  and  _313
REMARK  129  A    between atoms: _316  and  _318
REMARK  130  A    between atoms: _318  and  _319
REMARK  131  A    between atoms: _318  and  _321
REMARK  132  A    between atoms: _321  and  _322
REMARK  133  A    between atoms: _325  and  _327
REMARK  134  A    between atoms: _327  and  _328
REMARK  135  A    between atoms: _327  and  _330
REMARK  136  A    between atoms: _330  and  _331
REMARK  137  A    between atoms: _334  and  _336
REMARK  138  A    between atoms: _336  and  _337
REMARK  139  A    between atoms: _336  and  _339
REMARK  140  A    between atoms: _339  and  _340
REMARK  141  A    between atoms: _343  and  _345
REMARK  142  A    between atoms: _345  and  _346
REMARK  143  A    between atoms: _345  and  _348
REMARK  144  A    between atoms: _348  and  _349
REMARK  145  A    between atoms: _352  and  _354
REMARK  146  A    between atoms: _354  and  _355
REMARK  147  A    between atoms: _354  and  _357
REMARK  148  A    between atoms: _357  and  _358
REMARK  149  A    between atoms: _358  and  _359
REMARK  150  A    between atoms: _359  and  _360
REMARK  151  A    between atoms: _360  and  _361
REMARK  152  A    between atoms: _365  and  _367
REMARK  153  A    between atoms: _367  and  _368
REMARK  154  A    between atoms: _367  and  _370
REMARK  155  A    between atoms: _370  and  _371
REMARK  156  A    between atoms: _371  and  _372
REMARK  157  A    between atoms: _374  and  _376
REMARK  158  A    between atoms: _376  and  _377
REMARK  159  A    between atoms: _376  and  _379
REMARK  160  A    between atoms: _379  and  _380
REMARK  161  A    between atoms: _383  and  _385
REMARK  162  A    between atoms: _385  and  _386
REMARK  163  A    between atoms: _388  and  _390
REMARK  164  A    between atoms: _390  and  _391
REMARK  165  A    between atoms: _393  and  _395
REMARK  166  A    between atoms: _395  and  _396
REMARK  167  A    between atoms: _395  and  _398
REMARK  168  A    between atoms: _398  and  _399
REMARK  169  A    between atoms: _402  and  _404
REMARK  170  A    between atoms: _404  and  _405
REMARK  171  A    between atoms: _407  and  _409
REMARK  172  A    between atoms: _409  and  _410
REMARK  173  A    between atoms: _412  and  _414
REMARK  174  A    between atoms: _414  and  _415
REMARK  175  A    between atoms: _414  and  _417
REMARK  176  A    between atoms: _417  and  _418
REMARK  177  A    between atoms: _424  and  _426
REMARK  178  A    between atoms: _426  and  _427
REMARK  179  A    between atoms: _426  and  _429
REMARK  180  A    between atoms: _429  and  _430
REMARK  181  A    between atoms: _433  and  _435
REMARK  182  A    between atoms: _435  and  _436
REMARK  183  A    between atoms: _435  and  _438
REMARK  184  A    between atoms: _441  and  _443
REMARK  185  A    between atoms: _443  and  _444
REMARK  186  A    between atoms: _443  and  _446
REMARK  187  A    between atoms: _446  and  _447
REMARK  188  A    between atoms: _450  and  _452
REMARK  189  A    between atoms: _452  and  _453
REMARK  190  A    between atoms: _452  and  _455
REMARK  191  A    between atoms: _455  and  _456
REMARK  192  A    between atoms: _460  and  _461
REMARK  193  A    between atoms: _466  and  _468
REMARK  194  A    between atoms: _468  and  _469
REMARK  195  A    between atoms: _468  and  _471
REMARK  196  A    between atoms: _474  and  _476
REMARK  197  A    between atoms: _476  and  _477
REMARK  198  A    between atoms: _476  and  _479
REMARK  199  A    between atoms: _479  and  _480
REMARK  200  A    between atoms: _485  and  _487
REMARK  201  A    between atoms: _487  and  _488
REMARK  202  A    between atoms: _487  and  _490
REMARK  203  A    between atoms: _490  and  _491
REMARK  204  A    between atoms: _494  and  _496
REMARK  205  A    between atoms: _496  and  _497
REMARK  206  A    between atoms: _496  and  _499
REMARK  207  A    between atoms: _499  and  _500
REMARK  208  A    between atoms: _503  and  _505
REMARK  209  A    between atoms: _505  and  _506
REMARK  210  A    between atoms: _508  and  _510
REMARK  211  A    between atoms: _510  and  _511
REMARK  212  A    between atoms: _510  and  _513
REMARK  213  A    between atoms: _513  and  _514
REMARK  214  A    between atoms: _514  and  _515
REMARK  215  A    between atoms: _515  and  _516
REMARK  216  A    between atoms: _525  and  _527
REMARK  217  A    between atoms: _527  and  _528
REMARK  218  A    between atoms: _527  and  _530
REMARK  219  A    between atoms: _530  and  _531
REMARK                            x       y       z     vdW  Elec       q    Type
REMARK                         _______ _______ _______ _____ _____    ______ ____
ROOT
ATOM      1  O   HOH     1      12.422  20.965  10.359  0.00  0.00    +0.000 OA
ENDROOT
TORSDOF 0
REMARK  Name = ../refined-set-2016/4q1x/4q1x_pocket.pdb
REMARK  219 active torsions:
REMARK  status: ('A' for Active; 'I' for Inactive)
REMARK    1  A    between atoms: _1  and  _3
REMARK    2  A    between atoms: _3  and  _4
REMARK    3  A    between atoms: _3  and  _6
REMARK    4  A    between atoms: _6  and  _7
REMARK    5  A    between atoms: _7  and  _8
REMARK    6  A    between atoms: _8  and  _9
REMARK    7  A    between atoms: _18  and  _20
REMARK    8  A    between atoms: _20  and  _21
REMARK    9  A    between atoms: _20  and  _23
REMARK   10  A    between atoms: _23  and  _24
REMARK   11  A    between atoms: _27  and  _29
REMARK   12  A    between atoms: _29  and  _30
REMARK   13  A    between atoms: _29  and  _32
REMARK   14  A    between atoms: _32  and  _33
REMARK   15  A    between atoms: _36  and  _38
REMARK   16  A    between atoms: _38  and  _39
REMARK   17  A    between atoms: _38  and  _41
REMARK   18  A    between atoms: _41  and  _42
REMARK   19  A    between atoms: _45  and  _47
REMARK   20  A    between atoms: _47  and  _48
REMARK   21  A    between atoms: _47  and  _50
REMARK   22  A    between atoms: _50  and  _51
REMARK   23  A    between atoms: _54  and  _56
REMARK   24  A    between atoms: _56  and  _57
REMARK   25  A    between atoms: _59  and  _61
REMARK   26  A    between atoms: _61  and  _62
REMARK   27  A    between atoms: _65  and  _67
REMARK   28  A    between atoms: _67  and  _68
REMARK   29  A    between atoms: _67  and  _70
REMARK   30  A    between atoms: _70  and  _71
REMARK   31  A    between atoms: _74  and  _76
REMARK   32  A    between atoms: _76  and  _77
REMARK   33  A    between atoms: _76  and  _79
REMARK   34  A    between atoms: _79  and  _80
REMARK   35  A    between atoms: _83  and  _85
REMARK   36  A    between atoms: _85  and  _86
REMARK   37  A    between atoms: _85  and  _88
REMARK   38  A    between atoms: _88  and  _89
REMARK   39  A    between atoms: _92  and  _94
REMARK   40  A    between atoms: _94  and  _95
REMARK   41  A    between atoms: _94  and  _97
REMARK   42  A    between atoms: _97  and  _98
REMARK   43  A    between atoms: _101  and  _103
REMARK   44  A    between atoms: _103  and  _104
REMARK   45  A    between atoms: _103  and  _106
REMARK   46  A    between atoms: _106  and  _107
REMARK   47  A    between atoms: _110  and  _112
REMARK   48  A    between atoms: _112  and  _113
REMARK   49  A    between atoms: _115  and  _117
REMARK   50  A    between atoms: _117  and  _118
REMARK   51  A    between atoms: _120  and  _122
REMARK   52  A    between atoms: _122  and  _123
REMARK   53  A    between atoms: _122  and  _125
REMARK   54  A    between atoms: _125  and  _126
REMARK   55  A    between atoms: _129  and  _131
REMARK   56  A    between atoms: _131  and  _132
REMARK   57  A    between atoms: _134  and  _136
REMARK   58  A    between atoms: _136  and  _137
REMARK   59  A    between atoms: _139  and  _141
REMARK   60  A    between atoms: _141  and  _142
REMARK   61  A    between atoms: _141  and  _144
REMARK   62  A    between atoms: _144  and  _145
REMARK   63  A    between atoms: _148  and  _150
REMARK   64  A    between atoms: _150  and  _151
REMARK   65  A    between atoms: _150  and  _153
REMARK   66  A    between atoms: _153  and  _154
REMARK   67  A    between atoms: _157  and  _159
REMARK   68  A    between atoms: _159  and  _160
REMARK   69  A    between atoms: _159  and  _162
REMARK   70  A    between atoms: _162  and  _163
REMARK   71  A    between atoms: _167  and  _168
REMARK   72  A    between atoms: _173  and  _175
REMARK   73  A    between atoms: _175  and  _176
REMARK   74  A    between atoms: _175  and  _178
REMARK   75  A    between atoms: _181  and  _183
REMARK   76  A    between atoms: _183  and  _184
REMARK   77  A    between atoms: _183  and  _186
REMARK   78  A    between atoms: _186  and  _187
REMARK   79  A    between atoms: _192  and  _194
REMARK   80  A    between atoms: _194  and  _195
REMARK   81  A    between atoms: _194  and  _197
REMARK   82  A    between atoms: _197  and  _198
REMARK   83  A    between atoms: _201  and  _203
REMARK   84  A    between atoms: _203  and  _204
REMARK   85  A    between atoms: _203  and  _206
REMARK   86  A    between atoms: _206  and  _207
REMARK   87  A    between atoms: _210  and  _212
REMARK   88  A    between atoms: _212  and  _213
REMARK   89  A    between atoms: _215  and  _217
REMARK   90  A    between atoms: _217  and  _218
REMARK   91  A    between atoms: _217  and  _220
REMARK   92  A    between atoms: _220  and  _221
REMARK   93  A    between atoms: _221  and  _222
REMARK   94  A    between atoms: _222  and  _223
REMARK   95  A    between atoms: _232  and  _234
REMARK   96  A    between atoms: _234  and  _235
REMARK   97  A    between atoms: _234  and  _237
REMARK   98  A    between atoms: _237  and  _238
REMARK   99  A    between atoms: _243  and  _245
REMARK  100  A    between atoms: _245  and  _246
REMARK  101  A    between atoms: _245  and  _248
REMARK  102  A    between atoms: _248  and  _249
REMARK  103  A    between atoms: _249  and  _250
REMARK  104  A    between atoms: _250  and  _251
REMARK  105  A    between atoms: _260  and  _262
REMARK  106  A    between atoms: _262  and  _263
REMARK  107  A    between atoms: _262  and  _265
REMARK  108  A    between atoms: _265  and  _266
REMARK  109  A    between atoms: _269  and  _271
REMARK  110  A    between atoms: _271  and  _272
REMARK  111  A    between atoms: _271  and  _274
REMARK  112  A    between atoms: _274  and  _275
REMARK  113  A    between atoms: _278  and  _280
REMARK  114  A    between atoms: _280  and  _281
REMARK  115  A    between atoms: _280  and  _283
REMARK  116  A    between atoms: _283  and  _284
REMARK  117  A    between atoms: _287  and  _289
REMARK  118  A    between atoms: _289  and  _290
REMARK  119  A    between atoms: _289  and  _292
REMARK  120  A    between atoms: _292  and  _293
REMARK  121  A    between atoms: _296  and  _298
REMARK  122  A    between atoms: _298  and  _299
REMARK  123  A    between atoms: _301  and  _303
REMARK  124  A    between atoms: _303  and  _304
REMARK  125  A    between atoms: _307  and  _309
REMARK  126  A    between atoms: _309  and  _310
REMARK  127  A    between atoms: _309  and  _312
REMARK  128  A    between atoms: _312  and  _313
REMARK  129  A    between atoms: _316  and  _318
REMARK  130  A    between atoms: _318  and  _319
REMARK  131  A    between atoms: _318  and  _321
REMARK  132  A    between atoms: _321  and  _322
REMARK  133  A    between atoms: _325  and  _327
REMARK  134  A    between atoms: _327  and  _328
REMARK  135  A    between atoms: _327  and  _330
REMARK  136  A    between atoms: _330  and  _331
REMARK  137  A    between atoms: _334  and  _336
REMARK  138  A    between atoms: _336  and  _337
REMARK  139  A    between atoms: _336  and  _339
REMARK  140  A    between atoms: _339  and  _340
REMARK  141  A    between atoms: _343  and  _345
REMARK  142  A    between atoms: _345  and  _346
REMARK  143  A    between atoms: _345  and  _348
REMARK  144  A    between atoms: _348  and  _349
REMARK  145  A    between atoms: _352  and  _354
REMARK  146  A    between atoms: _354  and  _355
REMARK  147  A    between atoms: _354  and  _357
REMARK  148  A    between atoms: _357  and  _358
REMARK  149  A    between atoms: _358  and  _359
REMARK  150  A    between atoms: _359  and  _360
REMARK  151  A    between atoms: _360  and  _361
REMARK  152  A    between atoms: _365  and  _367
REMARK  153  A    between atoms: _367  and  _368
REMARK  154  A    between atoms: _367  and  _370
REMARK  155  A    between atoms: _370  and  _371
REMARK  156  A    between atoms: _371  and  _372
REMARK  157  A    between atoms: _374  and  _376
REMARK  158  A    between atoms: _376  and  _377
REMARK  159  A    between atoms: _376  and  _379
REMARK  160  A    between atoms: _379  and  _380
REMARK  161  A    between atoms: _383  and  _385
REMARK  162  A    between atoms: _385  and  _386
REMARK  163  A    between atoms: _388  and  _390
REMARK  164  A    between atoms: _390  and  _391
REMARK  165  A    between atoms: _393  and  _395
REMARK  166  A    between atoms: _395  and  _396
REMARK  167  A    between atoms: _395  and  _398
REMARK  168  A    between atoms: _398  and  _399
REMARK  169  A    between atoms: _402  and  _404
REMARK  170  A    between atoms: _404  and  _405
REMARK  171  A    between atoms: _407  and  _409
REMARK  172  A    between atoms: _409  and  _410
REMARK  173  A    between atoms: _412  and  _414
REMARK  174  A    between atoms: _414  and  _415
REMARK  175  A    between atoms: _414  and  _417
REMARK  176  A    between atoms: _417  and  _418
REMARK  177  A    between atoms: _424  and  _426
REMARK  178  A    between atoms: _426  and  _427
REMARK  179  A    between atoms: _426  and  _429
REMARK  180  A    between atoms: _429  and  _430
REMARK  181  A    between atoms: _433  and  _435
REMARK  182  A    between atoms: _435  and  _436
REMARK  183  A    between atoms: _435  and  _438
REMARK  184  A    between atoms: _441  and  _443
REMARK  185  A    between atoms: _443  and  _444
REMARK  186  A    between atoms: _443  and  _446
REMARK  187  A    between atoms: _446  and  _447
REMARK  188  A    between atoms: _450  and  _452
REMARK  189  A    between atoms: _452  and  _453
REMARK  190  A    between atoms: _452  and  _455
REMARK  191  A    between atoms: _455  and  _456
REMARK  192  A    between atoms: _460  and  _461
REMARK  193  A    between atoms: _466  and  _468
REMARK  194  A    between atoms: _468  and  _469
REMARK  195  A    between atoms: _468  and  _471
REMARK  196  A    between atoms: _474  and  _476
REMARK  197  A    between atoms: _476  and  _477
REMARK  198  A    between atoms: _476  and  _479
REMARK  199  A    between atoms: _479  and  _480
REMARK  200  A    between atoms: _485  and  _487
REMARK  201  A    between atoms: _487  and  _488
REMARK  202  A    between atoms: _487  and  _490
REMARK  203  A    between atoms: _490  and  _491
REMARK  204  A    between atoms: _494  and  _496
REMARK  205  A    between atoms: _496  and  _497
REMARK  206  A    between atoms: _496  and  _499
REMARK  207  A    between atoms: _499  and  _500
REMARK  208  A    between atoms: _503  and  _505
REMARK  209  A    between atoms: _505  and  _506
REMARK  210  A    between atoms: _508  and  _510
REMARK  211  A    between atoms: _510  and  _511
REMARK  212  A    between atoms: _510  and  _513
REMARK  213  A    between atoms: _513  and  _514
REMARK  214  A    between atoms: _514  and  _515
REMARK  215  A    between atoms: _515  and  _516
REMARK  216  A    between atoms: _525  and  _527
REMARK  217  A    between atoms: _527  and  _528
REMARK  218  A    between atoms: _527  and  _530
REMARK  219  A    between atoms: _530  and  _531
REMARK                            x       y       z     vdW  Elec       q    Type
REMARK                         _______ _______ _______ _____ _____    ______ ____
ROOT
ATOM      1  O   HOH     1      13.907  34.833  26.123  0.00  0.00    +0.000 OA
ENDROOT
TORSDOF 0
REMARK  Name = ../refined-set-2016/4q1x/4q1x_pocket.pdb
REMARK  219 active torsions:
REMARK  status: ('A' for Active; 'I' for Inactive)
REMARK    1  A    between atoms: _1  and  _3
REMARK    2  A    between atoms: _3  and  _4
REMARK    3  A    between atoms: _3  and  _6
REMARK    4  A    between atoms: _6  and  _7
REMARK    5  A    between atoms: _7  and  _8
REMARK    6  A    between atoms: _8  and  _9
REMARK    7  A    between atoms: _18  and  _20
REMARK    8  A    between atoms: _20  and  _21
REMARK    9  A    between atoms: _20  and  _23
REMARK   10  A    between atoms: _23  and  _24
REMARK   11  A    between atoms: _27  and  _29
REMARK   12  A    between atoms: _29  and  _30
REMARK   13  A    between atoms: _29  and  _32
REMARK   14  A    between atoms: _32  and  _33
REMARK   15  A    between atoms: _36  and  _38
REMARK   16  A    between atoms: _38  and  _39
REMARK   17  A    between atoms: _38  and  _41
REMARK   18  A    between atoms: _41  and  _42
REMARK   19  A    between atoms: _45  and  _47
REMARK   20  A    between atoms: _47  and  _48
REMARK   21  A    between atoms: _47  and  _50
REMARK   22  A    between atoms: _50  and  _51
REMARK   23  A    between atoms: _54  and  _56
REMARK   24  A    between atoms: _56  and  _57
REMARK   25  A    between atoms: _59  and  _61
REMARK   26  A    between atoms: _61  and  _62
REMARK   27  A    between atoms: _65  and  _67
REMARK   28  A    between atoms: _67  and  _68
REMARK   29  A    between atoms: _67  and  _70
REMARK   30  A    between atoms: _70  and  _71
REMARK   31  A    between atoms: _74  and  _76
REMARK   32  A    between atoms: _76  and  _77
REMARK   33  A    between atoms: _76  and  _79
REMARK   34  A    between atoms: _79  and  _80
REMARK   35  A    between atoms: _83  and  _85
REMARK   36  A    between atoms: _85  and  _86
REMARK   37  A    between atoms: _85  and  _88
REMARK   38  A    between atoms: _88  and  _89
REMARK   39  A    between atoms: _92  and  _94
REMARK   40  A    between atoms: _94  and  _95
REMARK   41  A    between atoms: _94  and  _97
REMARK   42  A    between atoms: _97  and  _98
REMARK   43  A    between atoms: _101  and  _103
REMARK   44  A    between atoms: _103  and  _104
REMARK   45  A    between atoms: _103  and  _106
REMARK   46  A    between atoms: _106  and  _107
REMARK   47  A    between atoms: _110  and  _112
REMARK   48  A    between atoms: _112  and  _113
REMARK   49  A    between atoms: _115  and  _117
REMARK   50  A    between atoms: _117  and  _118
REMARK   51  A    between atoms: _120  and  _122
REMARK   52  A    between atoms: _122  and  _123
REMARK   53  A    between atoms: _122  and  _125
REMARK   54  A    between atoms: _125  and  _126
REMARK   55  A    between atoms: _129  and  _131
REMARK   56  A    between atoms: _131  and  _132
REMARK   57  A    between atoms: _134  and  _136
REMARK   58  A    between atoms: _136  and  _137
REMARK   59  A    between atoms: _139  and  _141
REMARK   60  A    between atoms: _141  and  _142
REMARK   61  A    between atoms: _141  and  _144
REMARK   62  A    between atoms: _144  and  _145
REMARK   63  A    between atoms: _148  and  _150
REMARK   64  A    between atoms: _150  and  _151
REMARK   65  A    between atoms: _150  and  _153
REMARK   66  A    between atoms: _153  and  _154
REMARK   67  A    between atoms: _157  and  _159
REMARK   68  A    between atoms: _159  and  _160
REMARK   69  A    between atoms: _159  and  _162
REMARK   70  A    between atoms: _162  and  _163
REMARK   71  A    between atoms: _167  and  _168
REMARK   72  A    between atoms: _173  and  _175
REMARK   73  A    between atoms: _175  and  _176
REMARK   74  A    between atoms: _175  and  _178
REMARK   75  A    between atoms: _181  and  _183
REMARK   76  A    between atoms: _183  and  _184
REMARK   77  A    between atoms: _183  and  _186
REMARK   78  A    between atoms: _186  and  _187
REMARK   79  A    between atoms: _192  and  _194
REMARK   80  A    between atoms: _194  and  _195
REMARK   81  A    between atoms: _194  and  _197
REMARK   82  A    between atoms: _197  and  _198
REMARK   83  A    between atoms: _201  and  _203
REMARK   84  A    between atoms: _203  and  _204
REMARK   85  A    between atoms: _203  and  _206
REMARK   86  A    between atoms: _206  and  _207
REMARK   87  A    between atoms: _210  and  _212
REMARK   88  A    between atoms: _212  and  _213
REMARK   89  A    between atoms: _215  and  _217
REMARK   90  A    between atoms: _217  and  _218
REMARK   91  A    between atoms: _217  and  _220
REMARK   92  A    between atoms: _220  and  _221
REMARK   93  A    between atoms: _221  and  _222
REMARK   94  A    between atoms: _222  and  _223
REMARK   95  A    between atoms: _232  and  _234
REMARK   96  A    between atoms: _234  and  _235
REMARK   97  A    between atoms: _234  and  _237
REMARK   98  A    between atoms: _237  and  _238
REMARK   99  A    between atoms: _243  and  _245
REMARK  100  A    between atoms: _245  and  _246
REMARK  101  A    between atoms: _245  and  _248
REMARK  102  A    between atoms: _248  and  _249
REMARK  103  A    between atoms: _249  and  _250
REMARK  104  A    between atoms: _250  and  _251
REMARK  105  A    between atoms: _260  and  _262
REMARK  106  A    between atoms: _262  and  _263
REMARK  107  A    between atoms: _262  and  _265
REMARK  108  A    between atoms: _265  and  _266
REMARK  109  A    between atoms: _269  and  _271
REMARK  110  A    between atoms: _271  and  _272
REMARK  111  A    between atoms: _271  and  _274
REMARK  112  A    between atoms: _274  and  _275
REMARK  113  A    between atoms: _278  and  _280
REMARK  114  A    between atoms: _280  and  _281
REMARK  115  A    between atoms: _280  and  _283
REMARK  116  A    between atoms: _283  and  _284
REMARK  117  A    between atoms: _287  and  _289
REMARK  118  A    between atoms: _289  and  _290
REMARK  119  A    between atoms: _289  and  _292
REMARK  120  A    between atoms: _292  and  _293
REMARK  121  A    between atoms: _296  and  _298
REMARK  122  A    between atoms: _298  and  _299
REMARK  123  A    between atoms: _301  and  _303
REMARK  124  A    between atoms: _303  and  _304
REMARK  125  A    between atoms: _307  and  _309
REMARK  126  A    between atoms: _309  and  _310
REMARK  127  A    between atoms: _309  and  _312
REMARK  128  A    between atoms: _312  and  _313
REMARK  129  A    between atoms: _316  and  _318
REMARK  130  A    between atoms: _318  and  _319
REMARK  131  A    between atoms: _318  and  _321
REMARK  132  A    between atoms: _321  and  _322
REMARK  133  A    between atoms: _325  and  _327
REMARK  134  A    between atoms: _327  and  _328
REMARK  135  A    between atoms: _327  and  _330
REMARK  136  A    between atoms: _330  and  _331
REMARK  137  A    between atoms: _334  and  _336
REMARK  138  A    between atoms: _336  and  _337
REMARK  139  A    between atoms: _336  and  _339
REMARK  140  A    between atoms: _339  and  _340
REMARK  141  A    between atoms: _343  and  _345
REMARK  142  A    between atoms: _345  and  _346
REMARK  143  A    between atoms: _345  and  _348
REMARK  144  A    between atoms: _348  and  _349
REMARK  145  A    between atoms: _352  and  _354
REMARK  146  A    between atoms: _354  and  _355
REMARK  147  A    between atoms: _354  and  _357
REMARK  148  A    between atoms: _357  and  _358
REMARK  149  A    between atoms: _358  and  _359
REMARK  150  A    between atoms: _359  and  _360
REMARK  151  A    between atoms: _360  and  _361
REMARK  152  A    between atoms: _365  and  _367
REMARK  153  A    between atoms: _367  and  _368
REMARK  154  A    between atoms: _367  and  _370
REMARK  155  A    between atoms: _370  and  _371
REMARK  156  A    between atoms: _371  and  _372
REMARK  157  A    between atoms: _374  and  _376
REMARK  158  A    between atoms: _376  and  _377
REMARK  159  A    between atoms: _376  and  _379
REMARK  160  A    between atoms: _379  and  _380
REMARK  161  A    between atoms: _383  and  _385
REMARK  162  A    between atoms: _385  and  _386
REMARK  163  A    between atoms: _388  and  _390
REMARK  164  A    between atoms: _390  and  _391
REMARK  165  A    between atoms: _393  and  _395
REMARK  166  A    between atoms: _395  and  _396
REMARK  167  A    between atoms: _395  and  _398
REMARK  168  A    between atoms: _398  and  _399
REMARK  169  A    between atoms: _402  and  _404
REMARK  170  A    between atoms: _404  and  _405
REMARK  171  A    between atoms: _407  and  _409
REMARK  172  A    between atoms: _409  and  _410
REMARK  173  A    between atoms: _412  and  _414
REMARK  174  A    between atoms: _414  and  _415
REMARK  175  A    between atoms: _414  and  _417
REMARK  176  A    between atoms: _417  and  _418
REMARK  177  A    between atoms: _424  and  _426
REMARK  178  A    between atoms: _426  and  _427
REMARK  179  A    between atoms: _426  and  _429
REMARK  180  A    between atoms: _429  and  _430
REMARK  181  A    between atoms: _433  and  _435
REMARK  182  A    between atoms: _435  and  _436
REMARK  183  A    between atoms: _435  and  _438
REMARK  184  A    between atoms: _441  and  _443
REMARK  185  A    between atoms: _443  and  _444
REMARK  186  A    between atoms: _443  and  _446
REMARK  187  A    between atoms: _446  and  _447
REMARK  188  A    between atoms: _450  and  _452
REMARK  189  A    between atoms: _452  and  _453
REMARK  190  A    between atoms: _452  and  _455
REMARK  191  A    between atoms: _455  and  _456
REMARK  192  A    between atoms: _460  and  _461
REMARK  193  A    between atoms: _466  and  _468
REMARK  194  A    between atoms: _468  and  _469
REMARK  195  A    between atoms: _468  and  _471
REMARK  196  A    between atoms: _474  and  _476
REMARK  197  A    between atoms: _476  and  _477
REMARK  198  A    between atoms: _476  and  _479
REMARK  199  A    between atoms: _479  and  _480
REMARK  200  A    between atoms: _485  and  _487
REMARK  201  A    between atoms: _487  and  _488
REMARK  202  A    between atoms: _487  and  _490
REMARK  203  A    between atoms: _490  and  _491
REMARK  204  A    between atoms: _494  and  _496
REMARK  205  A    between atoms: _496  and  _497
REMARK  206  A    between atoms: _496  and  _499
REMARK  207  A    between atoms: _499  and  _500
REMARK  208  A    between atoms: _503  and  _505
REMARK  209  A    between atoms: _505  and  _506
REMARK  210  A    between atoms: _508  and  _510
REMARK  211  A    between atoms: _510  and  _511
REMARK  212  A    between atoms: _510  and  _513
REMARK  213  A    between atoms: _513  and  _514
REMARK  214  A    between atoms: _514  and  _515
REMARK  215  A    between atoms: _515  and  _516
REMARK  216  A    between atoms: _525  and  _527
REMARK  217  A    between atoms: _527  and  _528
REMARK  218  A    between atoms: _527  and  _530
REMARK  219  A    between atoms: _530  and  _531
REMARK                            x       y       z     vdW  Elec       q    Type
REMARK                         _______ _______ _______ _____ _____    ______ ____
ROOT
ATOM      1  O   HOH     1      17.418  40.215  16.263  0.00  0.00    +0.000 OA
ENDROOT
TORSDOF 0
